REMARK  1 active torsions:
REMARK  status: ('A' for Active; 'I' for Inactive)
REMARK    1  A    between atoms: N1_2  and  C5_10 
ROOT
ATOM      1 Cl1  UNK A   1     -15.704   2.381  28.415  1.00  0.00    -0.084 Cl
ATOM      2  N3  UNK A   1     -10.960   3.437  29.797  1.00  0.00    -0.228 NA
ATOM      3  N4  UNK A   1     -11.901   4.293  32.532  1.00  0.00    -0.354 N 
ATOM      4  C5  UNK A   1      -9.897   3.577  30.588  1.00  0.00     0.139 C 
ATOM      5  C6  UNK A   1      -9.786   3.261  32.023  1.00  0.00     0.036 A 
ATOM      6  C8  UNK A   1     -10.769   3.634  32.955  1.00  0.00     0.046 A 
ATOM      7  C9  UNK A   1     -12.231   3.314  30.296  1.00  0.00     0.087 A 
ATOM      8  C10 UNK A   1     -12.700   3.674  31.587  1.00  0.00     0.061 A 
ATOM      9  C11 UNK A   1      -8.619   2.626  32.509  1.00  0.00     0.017 A 
ATOM     10  C12 UNK A   1     -10.598   3.403  34.332  1.00  0.00     0.030 A 
ATOM     11  C13 UNK A   1      -8.434   2.400  33.886  1.00  0.00     0.001 A 
ATOM     12  C14 UNK A   1     -13.181   2.903  29.340  1.00  0.00     0.057 A 
ATOM     13  C15 UNK A   1      -9.425   2.792  34.801  1.00  0.00     0.002 A 
ATOM     14  C16 UNK A   1     -14.067   3.559  31.910  1.00  0.00     0.033 A 
ATOM     15  C17 UNK A   1     -14.548   2.821  29.654  1.00  0.00     0.036 A 
ATOM     16  C18 UNK A   1     -14.992   3.130  30.947  1.00  0.00     0.026 A 
ATOM     17  H13 UNK A   1     -12.245   5.096  33.041  1.00  0.00     0.166 HD
ENDROOT
BRANCH   4  18
ATOM     18  N1  UNK A   1      -8.727   3.877  29.910  1.00  0.00    -0.362 N 
ATOM     19  C1  UNK A   1      -8.388   3.237  28.621  1.00  0.00     0.152 C 
ATOM     20  C3  UNK A   1      -6.893   2.867  28.612  1.00  0.00     0.254 C 
ATOM     21  N2  UNK A   1      -5.987   4.045  28.923  1.00  0.00    -0.072 N 
ATOM     22  C4  UNK A   1      -6.400   4.634  30.263  1.00  0.00     0.254 C 
ATOM     23  C7  UNK A   1      -4.548   3.574  28.990  1.00  0.00     0.269 C 
ATOM     24  HN  UNK A   1      -6.094   4.762  28.185  1.00  0.00     0.279 HD
ATOM     25  C2  UNK A   1      -7.890   5.025  30.320  1.00  0.00     0.152 C 
ENDBRANCH   4  18
TORSDOF 1
