MODEL 1
REMARK VINA RESULT:      -5.8      0.000      0.000
REMARK  1 active torsions:
REMARK  status: ('A' for Active; 'I' for Inactive)
REMARK    1  A    between atoms: N1_2  and  C5_10 
ROOT
ATOM      1 Cl1  UNK A   1       6.680  -7.350  -8.190  1.00  0.00    -0.084 Cl
ATOM      2  N3  UNK A   1       4.357  -7.719  -3.718  1.00  0.00    -0.228 NA
ATOM      3  N4  UNK A   1       1.699  -7.090  -4.998  1.00  0.00    -0.354 N 
ATOM      4  C5  UNK A   1       3.390  -7.968  -2.836  1.00  0.00     0.139 C 
ATOM      5  C6  UNK A   1       2.048  -8.519  -3.092  1.00  0.00     0.036 A 
ATOM      6  C8  UNK A   1       1.234  -8.064  -4.144  1.00  0.00     0.046 A 
ATOM      7  C9  UNK A   1       4.107  -7.601  -5.061  1.00  0.00     0.087 A 
ATOM      8  C10 UNK A   1       2.866  -7.340  -5.698  1.00  0.00     0.061 A 
ATOM      9  C11 UNK A   1       1.512  -9.488  -2.212  1.00  0.00     0.017 A 
ATOM     10  C12 UNK A   1      -0.079  -8.539  -4.312  1.00  0.00     0.030 A 
ATOM     11  C13 UNK A   1       0.195  -9.962  -2.366  1.00  0.00     0.001 A 
ATOM     12  C14 UNK A   1       5.269  -7.613  -5.859  1.00  0.00     0.057 A 
ATOM     13  C15 UNK A   1      -0.604  -9.484  -3.418  1.00  0.00     0.002 A 
ATOM     14  C16 UNK A   1       2.801  -7.164  -7.095  1.00  0.00     0.033 A 
ATOM     15  C17 UNK A   1       5.206  -7.404  -7.247  1.00  0.00     0.036 A 
ATOM     16  C18 UNK A   1       3.968  -7.198  -7.872  1.00  0.00     0.026 A 
ATOM     17  H13 UNK A   1       1.105  -6.315  -5.261  1.00  0.00     0.166 HD
ENDROOT
BRANCH   4  18
ATOM     18  N1  UNK A   1       3.794  -7.864  -1.515  1.00  0.00    -0.362 N 
ATOM     19  C1  UNK A   1       4.972  -8.595  -1.001  1.00  0.00     0.152 C 
ATOM     20  C3  UNK A   1       4.648  -9.174   0.389  1.00  0.00     0.254 C 
ATOM     21  N2  UNK A   1       4.151  -8.127   1.369  1.00  0.00    -0.072 N 
ATOM     22  C4  UNK A   1       2.939  -7.434   0.765  1.00  0.00     0.254 C 
ATOM     23  C7  UNK A   1       3.764  -8.795   2.673  1.00  0.00     0.269 C 
ATOM     24  HN  UNK A   1       4.898  -7.431   1.532  1.00  0.00     0.279 HD
ATOM     25  C2  UNK A   1       3.216  -6.832  -0.627  1.00  0.00     0.152 C 
ENDBRANCH   4  18
TORSDOF 1
ENDMDL
MODEL 2
REMARK VINA RESULT:      -5.5      2.113      3.841
REMARK  1 active torsions:
REMARK  status: ('A' for Active; 'I' for Inactive)
REMARK    1  A    between atoms: N1_2  and  C5_10 
ROOT
ATOM      1 Cl1  UNK A   1       2.423  -6.532  -9.187  1.00  0.00    -0.084 Cl
ATOM      2  N3  UNK A   1       2.453  -8.055  -4.370  1.00  0.00    -0.228 NA
ATOM      3  N4  UNK A   1       5.049  -9.527  -4.806  1.00  0.00    -0.354 N 
ATOM      4  C5  UNK A   1       2.939  -8.421  -3.184  1.00  0.00     0.139 C 
ATOM      5  C6  UNK A   1       4.348  -8.473  -2.758  1.00  0.00     0.036 A 
ATOM      6  C8  UNK A   1       5.358  -9.031  -3.560  1.00  0.00     0.046 A 
ATOM      7  C9  UNK A   1       3.231  -8.016  -5.498  1.00  0.00     0.087 A 
ATOM      8  C10 UNK A   1       4.472  -8.668  -5.724  1.00  0.00     0.061 A 
ATOM      9  C11 UNK A   1       4.703  -8.017  -1.467  1.00  0.00     0.017 A 
ATOM     10  C12 UNK A   1       6.680  -9.153  -3.094  1.00  0.00     0.030 A 
ATOM     11  C13 UNK A   1       6.021  -8.144  -0.987  1.00  0.00     0.001 A 
ATOM     12  C14 UNK A   1       2.628  -7.350  -6.583  1.00  0.00     0.057 A 
ATOM     13  C15 UNK A   1       7.012  -8.716  -1.802  1.00  0.00     0.002 A 
ATOM     14  C16 UNK A   1       5.103  -8.590  -6.982  1.00  0.00     0.033 A 
ATOM     15  C17 UNK A   1       3.242  -7.302  -7.846  1.00  0.00     0.036 A 
ATOM     16  C18 UNK A   1       4.492  -7.906  -8.043  1.00  0.00     0.026 A 
ATOM     17  H13 UNK A   1       5.419 -10.419  -5.107  1.00  0.00     0.166 HD
ENDROOT
BRANCH   4  18
ATOM     18  N1  UNK A   1       1.971  -8.584  -2.206  1.00  0.00    -0.362 N 
ATOM     19  C1  UNK A   1       1.093  -7.470  -1.787  1.00  0.00     0.152 C 
ATOM     20  C3  UNK A   1       0.946  -7.486  -0.254  1.00  0.00     0.254 C 
ATOM     21  N2  UNK A   1       0.472  -8.824   0.285  1.00  0.00    -0.072 N 
ATOM     22  C4  UNK A   1       1.434  -9.904  -0.186  1.00  0.00     0.254 C 
ATOM     23  C7  UNK A   1       0.449  -8.781   1.800  1.00  0.00     0.269 C 
ATOM     24  HN  UNK A   1      -0.474  -9.023  -0.081  1.00  0.00     0.279 HD
ATOM     25  C2  UNK A   1       1.611  -9.932  -1.717  1.00  0.00     0.152 C 
ENDBRANCH   4  18
TORSDOF 1
ENDMDL
MODEL 3
REMARK VINA RESULT:      -5.1      2.025      4.539
REMARK  1 active torsions:
REMARK  status: ('A' for Active; 'I' for Inactive)
REMARK    1  A    between atoms: N1_2  and  C5_10 
ROOT
ATOM      1 Cl1  UNK A   1       4.884  -6.909  -7.642  1.00  0.00    -0.084 Cl
ATOM      2  N3  UNK A   1       2.790  -7.826  -3.135  1.00  0.00    -0.228 NA
ATOM      3  N4  UNK A   1       5.429  -8.820  -2.063  1.00  0.00    -0.354 N 
ATOM      4  C5  UNK A   1       2.691  -7.953  -1.813  1.00  0.00     0.139 C 
ATOM      5  C6  UNK A   1       3.724  -7.687  -0.796  1.00  0.00     0.036 A 
ATOM      6  C8  UNK A   1       5.049  -8.133  -0.932  1.00  0.00     0.046 A 
ATOM      7  C9  UNK A   1       4.001  -7.773  -3.776  1.00  0.00     0.087 A 
ATOM      8  C10 UNK A   1       5.265  -8.199  -3.288  1.00  0.00     0.061 A 
ATOM      9  C11 UNK A   1       3.368  -7.024   0.402  1.00  0.00     0.017 A 
ATOM     10  C12 UNK A   1       5.994  -7.946   0.093  1.00  0.00     0.030 A 
ATOM     11  C13 UNK A   1       4.303  -6.842   1.438  1.00  0.00     0.001 A 
ATOM     12  C14 UNK A   1       3.916  -7.365  -5.121  1.00  0.00     0.057 A 
ATOM     13  C15 UNK A   1       5.620  -7.307   1.285  1.00  0.00     0.002 A 
ATOM     14  C16 UNK A   1       6.405  -8.150  -4.116  1.00  0.00     0.033 A 
ATOM     15  C17 UNK A   1       5.047  -7.349  -5.955  1.00  0.00     0.036 A 
ATOM     16  C18 UNK A   1       6.299  -7.723  -5.448  1.00  0.00     0.026 A 
ATOM     17  H13 UNK A   1       5.995  -9.654  -1.988  1.00  0.00     0.166 HD
ENDROOT
BRANCH   4  18
ATOM     18  N1  UNK A   1       1.400  -8.181  -1.365  1.00  0.00    -0.362 N 
ATOM     19  C1  UNK A   1       1.108  -9.164  -0.300  1.00  0.00     0.152 C 
ATOM     20  C3  UNK A   1      -0.155  -9.962  -0.674  1.00  0.00     0.254 C 
ATOM     21  N2  UNK A   1      -1.349  -9.077  -0.980  1.00  0.00    -0.072 N 
ATOM     22  C4  UNK A   1      -0.963  -8.107  -2.086  1.00  0.00     0.254 C 
ATOM     23  C7  UNK A   1      -2.514  -9.934  -1.431  1.00  0.00     0.269 C 
ATOM     24  HN  UNK A   1      -1.606  -8.544  -0.131  1.00  0.00     0.279 HD
ATOM     25  C2  UNK A   1       0.295  -7.280  -1.756  1.00  0.00     0.152 C 
ENDBRANCH   4  18
TORSDOF 1
ENDMDL
MODEL 4
REMARK VINA RESULT:      -5.0      2.991      6.659
REMARK  1 active torsions:
REMARK  status: ('A' for Active; 'I' for Inactive)
REMARK    1  A    between atoms: N1_2  and  C5_10 
ROOT
ATOM      1 Cl1  UNK A   1      -2.045  -8.837  -1.871  1.00  0.00    -0.084 Cl
ATOM      2  N3  UNK A   1       2.425  -8.208  -4.142  1.00  0.00    -0.228 NA
ATOM      3  N4  UNK A   1       3.571  -6.973  -1.641  1.00  0.00    -0.354 N 
ATOM      4  C5  UNK A   1       3.746  -8.113  -4.282  1.00  0.00     0.139 C 
ATOM      5  C6  UNK A   1       4.783  -8.291  -3.250  1.00  0.00     0.036 A 
ATOM      6  C8  UNK A   1       4.683  -7.713  -1.973  1.00  0.00     0.046 A 
ATOM      7  C9  UNK A   1       1.812  -8.130  -2.918  1.00  0.00     0.087 A 
ATOM      8  C10 UNK A   1       2.334  -7.587  -1.714  1.00  0.00     0.061 A 
ATOM      9  C11 UNK A   1       5.963  -9.005  -3.563  1.00  0.00     0.017 A 
ATOM     10  C12 UNK A   1       5.727  -7.820  -1.037  1.00  0.00     0.030 A 
ATOM     11  C13 UNK A   1       7.018  -9.110  -2.637  1.00  0.00     0.001 A 
ATOM     12  C14 UNK A   1       0.459  -8.522  -2.933  1.00  0.00     0.057 A 
ATOM     13  C15 UNK A   1       6.901  -8.513  -1.370  1.00  0.00     0.002 A 
ATOM     14  C16 UNK A   1       1.532  -7.508  -0.558  1.00  0.00     0.033 A 
ATOM     15  C17 UNK A   1      -0.349  -8.411  -1.788  1.00  0.00     0.036 A 
ATOM     16  C18 UNK A   1       0.192  -7.922  -0.591  1.00  0.00     0.026 A 
ATOM     17  H13 UNK A   1       3.671  -6.087  -1.163  1.00  0.00     0.166 HD
ENDROOT
BRANCH   4  18
ATOM     18  N1  UNK A   1       4.168  -8.022  -5.598  1.00  0.00    -0.362 N 
ATOM     19  C1  UNK A   1       3.947  -9.121  -6.563  1.00  0.00     0.152 C 
ATOM     20  C3  UNK A   1       5.213  -9.309  -7.420  1.00  0.00     0.254 C 
ATOM     21  N2  UNK A   1       5.667  -8.030  -8.101  1.00  0.00    -0.072 N 
ATOM     22  C4  UNK A   1       5.876  -6.963  -7.038  1.00  0.00     0.254 C 
ATOM     23  C7  UNK A   1       6.966  -8.281  -8.839  1.00  0.00     0.269 C 
ATOM     24  HN  UNK A   1       4.935  -7.717  -8.762  1.00  0.00     0.279 HD
ATOM     25  C2  UNK A   1       4.632  -6.734  -6.156  1.00  0.00     0.152 C 
ENDBRANCH   4  18
TORSDOF 1
ENDMDL
MODEL 5
REMARK VINA RESULT:      -4.9      3.376      7.140
REMARK  1 active torsions:
REMARK  status: ('A' for Active; 'I' for Inactive)
REMARK    1  A    between atoms: N1_2  and  C5_10 
ROOT
ATOM      1 Cl1  UNK A   1      -1.777  -9.954   2.067  1.00  0.00    -0.084 Cl
ATOM      2  N3  UNK A   1       1.371  -8.505  -1.610  1.00  0.00    -0.228 NA
ATOM      3  N4  UNK A   1       3.231  -7.260   0.413  1.00  0.00    -0.354 N 
ATOM      4  C5  UNK A   1       2.517  -8.198  -2.217  1.00  0.00     0.139 C 
ATOM      5  C6  UNK A   1       3.883  -8.276  -1.670  1.00  0.00     0.036 A 
ATOM      6  C8  UNK A   1       4.211  -7.798  -0.390  1.00  0.00     0.046 A 
ATOM      7  C9  UNK A   1       1.269  -8.596  -0.246  1.00  0.00     0.087 A 
ATOM      8  C10 UNK A   1       2.143  -8.053   0.733  1.00  0.00     0.061 A 
ATOM      9  C11 UNK A   1       4.930  -8.779  -2.478  1.00  0.00     0.017 A 
ATOM     10  C12 UNK A   1       5.538  -7.799   0.074  1.00  0.00     0.030 A 
ATOM     11  C13 UNK A   1       6.263  -8.774  -2.026  1.00  0.00     0.001 A 
ATOM     12  C14 UNK A   1       0.072  -9.192   0.197  1.00  0.00     0.057 A 
ATOM     13  C15 UNK A   1       6.569  -8.280  -0.747  1.00  0.00     0.002 A 
ATOM     14  C16 UNK A   1       1.842  -8.169   2.105  1.00  0.00     0.033 A 
ATOM     15  C17 UNK A   1      -0.243  -9.277   1.563  1.00  0.00     0.036 A 
ATOM     16  C18 UNK A   1       0.652  -8.783   2.522  1.00  0.00     0.026 A 
ATOM     17  H13 UNK A   1       3.399  -6.400   0.918  1.00  0.00     0.166 HD
ENDROOT
BRANCH   4  18
ATOM     18  N1  UNK A   1       2.388  -7.965  -3.577  1.00  0.00    -0.362 N 
ATOM     19  C1  UNK A   1       1.952  -9.024  -4.511  1.00  0.00     0.152 C 
ATOM     20  C3  UNK A   1       2.806  -8.961  -5.791  1.00  0.00     0.254 C 
ATOM     21  N2  UNK A   1       2.804  -7.588  -6.439  1.00  0.00    -0.072 N 
ATOM     22  C4  UNK A   1       3.272  -6.566  -5.414  1.00  0.00     0.254 C 
ATOM     23  C7  UNK A   1       3.742  -7.588  -7.630  1.00  0.00     0.269 C 
ATOM     24  HN  UNK A   1       1.843  -7.355  -6.742  1.00  0.00     0.279 HD
ATOM     25  C2  UNK A   1       2.443  -6.588  -4.115  1.00  0.00     0.152 C 
ENDBRANCH   4  18
TORSDOF 1
ENDMDL
MODEL 6
REMARK VINA RESULT:      -4.6      9.737     12.363
REMARK  1 active torsions:
REMARK  status: ('A' for Active; 'I' for Inactive)
REMARK    1  A    between atoms: N1_2  and  C5_10 
ROOT
ATOM      1 Cl1  UNK A   1       0.071  -4.161   5.925  1.00  0.00    -0.084 Cl
ATOM      2  N3  UNK A   1      -3.824  -6.933   4.290  1.00  0.00    -0.228 NA
ATOM      3  N4  UNK A   1      -3.339  -8.972   6.460  1.00  0.00    -0.354 N 
ATOM      4  C5  UNK A   1      -4.866  -7.762   4.336  1.00  0.00     0.139 C 
ATOM      5  C6  UNK A   1      -5.478  -8.387   5.522  1.00  0.00     0.036 A 
ATOM      6  C8  UNK A   1      -4.713  -8.984   6.538  1.00  0.00     0.046 A 
ATOM      7  C9  UNK A   1      -2.932  -6.824   5.326  1.00  0.00     0.087 A 
ATOM      8  C10 UNK A   1      -2.702  -7.746   6.380  1.00  0.00     0.061 A 
ATOM      9  C11 UNK A   1      -6.887  -8.463   5.621  1.00  0.00     0.017 A 
ATOM     10  C12 UNK A   1      -5.322  -9.655   7.614  1.00  0.00     0.030 A 
ATOM     11  C13 UNK A   1      -7.505  -9.140   6.689  1.00  0.00     0.001 A 
ATOM     12  C14 UNK A   1      -2.068  -5.716   5.218  1.00  0.00     0.057 A 
ATOM     13  C15 UNK A   1      -6.720  -9.741   7.687  1.00  0.00     0.002 A 
ATOM     14  C16 UNK A   1      -1.679  -7.517   7.322  1.00  0.00     0.033 A 
ATOM     15  C17 UNK A   1      -1.027  -5.507   6.139  1.00  0.00     0.036 A 
ATOM     16  C18 UNK A   1      -0.843  -6.397   7.206  1.00  0.00     0.026 A 
ATOM     17  H13 UNK A   1      -2.808  -9.808   6.663  1.00  0.00     0.166 HD
ENDROOT
BRANCH   4  18
ATOM     18  N1  UNK A   1      -5.544  -7.879   3.134  1.00  0.00    -0.362 N 
ATOM     19  C1  UNK A   1      -5.647  -9.169   2.419  1.00  0.00     0.152 C 
ATOM     20  C3  UNK A   1      -5.438  -8.936   0.911  1.00  0.00     0.254 C 
ATOM     21  N2  UNK A   1      -6.374  -7.887   0.337  1.00  0.00    -0.072 N 
ATOM     22  C4  UNK A   1      -6.197  -6.597   1.123  1.00  0.00     0.254 C 
ATOM     23  C7  UNK A   1      -6.037  -7.651  -1.122  1.00  0.00     0.269 C 
ATOM     24  HN  UNK A   1      -7.351  -8.214   0.429  1.00  0.00     0.279 HD
ATOM     25  C2  UNK A   1      -6.400  -6.779   2.640  1.00  0.00     0.152 C 
ENDBRANCH   4  18
TORSDOF 1
ENDMDL
MODEL 7
REMARK VINA RESULT:      -4.5      5.111      7.510
REMARK  1 active torsions:
REMARK  status: ('A' for Active; 'I' for Inactive)
REMARK    1  A    between atoms: N1_2  and  C5_10 
ROOT
ATOM      1 Cl1  UNK A   1      -1.870  -8.685   6.446  1.00  0.00    -0.084 Cl
ATOM      2  N3  UNK A   1       1.339  -8.451   2.550  1.00  0.00    -0.228 NA
ATOM      3  N4  UNK A   1      -0.609  -9.946   0.799  1.00  0.00    -0.354 N 
ATOM      4  C5  UNK A   1       1.760  -8.379   1.288  1.00  0.00     0.139 C 
ATOM      5  C6  UNK A   1       0.946  -8.260   0.065  1.00  0.00     0.036 A 
ATOM      6  C8  UNK A   1      -0.197  -9.046  -0.158  1.00  0.00     0.046 A 
ATOM      7  C9  UNK A   1       0.052  -8.793   2.872  1.00  0.00     0.087 A 
ATOM      8  C10 UNK A   1      -0.902  -9.464   2.062  1.00  0.00     0.061 A 
ATOM      9  C11 UNK A   1       1.357  -7.381  -0.964  1.00  0.00     0.017 A 
ATOM     10  C12 UNK A   1      -0.906  -8.980  -1.372  1.00  0.00     0.030 A 
ATOM     11  C13 UNK A   1       0.661  -7.316  -2.186  1.00  0.00     0.001 A 
ATOM     12  C14 UNK A   1      -0.281  -8.551   4.220  1.00  0.00     0.057 A 
ATOM     13  C15 UNK A   1      -0.472  -8.120  -2.392  1.00  0.00     0.002 A 
ATOM     14  C16 UNK A   1      -2.163  -9.817   2.584  1.00  0.00     0.033 A 
ATOM     15  C17 UNK A   1      -1.526  -8.933   4.747  1.00  0.00     0.036 A 
ATOM     16  C18 UNK A   1      -2.479  -9.550   3.924  1.00  0.00     0.026 A 
ATOM     17  H13 UNK A   1      -0.887 -10.881   0.534  1.00  0.00     0.166 HD
ENDROOT
BRANCH   4  18
ATOM     18  N1  UNK A   1       3.129  -8.207   1.160  1.00  0.00    -0.362 N 
ATOM     19  C1  UNK A   1       3.953  -9.115   0.334  1.00  0.00     0.152 C 
ATOM     20  C3  UNK A   1       5.264  -9.433   1.077  1.00  0.00     0.254 C 
ATOM     21  N2  UNK A   1       6.026  -8.189   1.497  1.00  0.00    -0.072 N 
ATOM     22  C4  UNK A   1       5.109  -7.322   2.345  1.00  0.00     0.254 C 
ATOM     23  C7  UNK A   1       7.245  -8.590   2.303  1.00  0.00     0.269 C 
ATOM     24  HN  UNK A   1       6.313  -7.664   0.653  1.00  0.00     0.279 HD
ATOM     25  C2  UNK A   1       3.783  -6.972   1.641  1.00  0.00     0.152 C 
ENDBRANCH   4  18
TORSDOF 1
ENDMDL
MODEL 8
REMARK VINA RESULT:      -4.3      3.728      5.928
REMARK  1 active torsions:
REMARK  status: ('A' for Active; 'I' for Inactive)
REMARK    1  A    between atoms: N1_2  and  C5_10 
ROOT
ATOM      1 Cl1  UNK A   1      -3.501  -9.962   1.827  1.00  0.00    -0.084 Cl
ATOM      2  N3  UNK A   1       1.162  -9.378  -0.027  1.00  0.00    -0.228 NA
ATOM      3  N4  UNK A   1       0.157  -9.871  -2.828  1.00  0.00    -0.354 N 
ATOM      4  C5  UNK A   1       2.127  -9.056  -0.888  1.00  0.00     0.139 C 
ATOM      5  C6  UNK A   1       1.988  -8.432  -2.216  1.00  0.00     0.036 A 
ATOM      6  C8  UNK A   1       1.029  -8.856  -3.151  1.00  0.00     0.046 A 
ATOM      7  C9  UNK A   1      -0.147  -9.504  -0.412  1.00  0.00     0.087 A 
ATOM      8  C10 UNK A   1      -0.657  -9.703  -1.722  1.00  0.00     0.061 A 
ATOM      9  C11 UNK A   1       2.892  -7.417  -2.607  1.00  0.00     0.017 A 
ATOM     10  C12 UNK A   1       0.976  -8.307  -4.445  1.00  0.00     0.030 A 
ATOM     11  C13 UNK A   1       2.853  -6.868  -3.903  1.00  0.00     0.001 A 
ATOM     12  C14 UNK A   1      -1.053  -9.575   0.665  1.00  0.00     0.057 A 
ATOM     13  C15 UNK A   1       1.894  -7.317  -4.826  1.00  0.00     0.002 A 
ATOM     14  C16 UNK A   1      -2.036  -9.900  -1.932  1.00  0.00     0.033 A 
ATOM     15  C17 UNK A   1      -2.423  -9.805   0.457  1.00  0.00     0.036 A 
ATOM     16  C18 UNK A   1      -2.922  -9.948  -0.845  1.00  0.00     0.026 A 
ATOM     17  H13 UNK A   1      -0.029 -10.614  -3.489  1.00  0.00     0.166 HD
ENDROOT
BRANCH   4  18
ATOM     18  N1  UNK A   1       3.405  -9.160  -0.365  1.00  0.00    -0.362 N 
ATOM     19  C1  UNK A   1       3.686  -8.903   1.064  1.00  0.00     0.152 C 
ATOM     20  C3  UNK A   1       4.986  -8.088   1.190  1.00  0.00     0.254 C 
ATOM     21  N2  UNK A   1       6.164  -8.734   0.483  1.00  0.00    -0.072 N 
ATOM     22  C4  UNK A   1       5.792  -8.954  -0.976  1.00  0.00     0.254 C 
ATOM     23  C7  UNK A   1       7.372  -7.823   0.574  1.00  0.00     0.269 C 
ATOM     24  HN  UNK A   1       6.370  -9.646   0.926  1.00  0.00     0.279 HD
ATOM     25  C2  UNK A   1       4.497  -9.770  -1.155  1.00  0.00     0.152 C 
ENDBRANCH   4  18
TORSDOF 1
ENDMDL
MODEL 9
REMARK VINA RESULT:      -3.8      2.996      4.937
REMARK  1 active torsions:
REMARK  status: ('A' for Active; 'I' for Inactive)
REMARK    1  A    between atoms: N1_2  and  C5_10 
ROOT
ATOM      1 Cl1  UNK A   1      -3.215  -9.261  -0.770  1.00  0.00    -0.084 Cl
ATOM      2  N3  UNK A   1       1.692  -8.319  -1.526  1.00  0.00    -0.228 NA
ATOM      3  N4  UNK A   1       1.603  -9.752  -4.179  1.00  0.00    -0.354 N 
ATOM      4  C5  UNK A   1       2.823  -8.067  -2.183  1.00  0.00     0.139 C 
ATOM      5  C6  UNK A   1       3.006  -7.873  -3.633  1.00  0.00     0.036 A 
ATOM      6  C8  UNK A   1       2.413  -8.717  -4.587  1.00  0.00     0.046 A 
ATOM      7  C9  UNK A   1       0.572  -8.799  -2.155  1.00  0.00     0.087 A 
ATOM      8  C10 UNK A   1       0.490  -9.446  -3.416  1.00  0.00     0.061 A 
ATOM      9  C11 UNK A   1       3.867  -6.851  -4.096  1.00  0.00     0.017 A 
ATOM     10  C12 UNK A   1       2.677  -8.569  -5.961  1.00  0.00     0.030 A 
ATOM     11  C13 UNK A   1       4.145  -6.700  -5.468  1.00  0.00     0.001 A 
ATOM     12  C14 UNK A   1      -0.593  -8.743  -1.365  1.00  0.00     0.057 A 
ATOM     13  C15 UNK A   1       3.550  -7.563  -6.403  1.00  0.00     0.002 A 
ATOM     14  C16 UNK A   1      -0.739  -9.957  -3.880  1.00  0.00     0.033 A 
ATOM     15  C17 UNK A   1      -1.810  -9.282  -1.815  1.00  0.00     0.036 A 
ATOM     16  C18 UNK A   1      -1.890  -9.874  -3.083  1.00  0.00     0.026 A 
ATOM     17  H13 UNK A   1       1.699 -10.670  -4.592  1.00  0.00     0.166 HD
ENDROOT
BRANCH   4  18
ATOM     18  N1  UNK A   1       3.898  -7.773  -1.361  1.00  0.00    -0.362 N 
ATOM     19  C1  UNK A   1       5.235  -8.362  -1.586  1.00  0.00     0.152 C 
ATOM     20  C3  UNK A   1       5.844  -8.778  -0.234  1.00  0.00     0.254 C 
ATOM     21  N2  UNK A   1       5.880  -7.645   0.776  1.00  0.00    -0.072 N 
ATOM     22  C4  UNK A   1       4.468  -7.107   0.951  1.00  0.00     0.254 C 
ATOM     23  C7  UNK A   1       6.400  -8.164   2.101  1.00  0.00     0.269 C 
ATOM     24  HN  UNK A   1       6.494  -6.892   0.421  1.00  0.00     0.279 HD
ATOM     25  C2  UNK A   1       3.816  -6.672  -0.377  1.00  0.00     0.152 C 
ENDBRANCH   4  18
TORSDOF 1
ENDMDL
