REMARK  Name = 15443
REMARK  6 active torsions:
REMARK  status: ('A' for Active; 'I' for Inactive)
REMARK    1  A    between atoms: N_3  and  C_10
REMARK    2  A    between atoms: N_4  and  C_12
REMARK    3  A    between atoms: C_10  and  C_11
REMARK    4  A    between atoms: C_11  and  C_13
REMARK    5  A    between atoms: C_13  and  C_15
REMARK    6  A    between atoms: C_15  and  C_16
REMARK                            x       y       z     vdW  Elec       q    Type
REMARK                         _______ _______ _______ _____ _____    ______ ____
ROOT
ATOM      1  N   UNL     1       0.833  -1.946   0.466  0.00  0.00    +0.000 NA
ATOM      2  N   UNL     1       3.178  -0.366   0.060  0.00  0.00    +0.000 N 
ATOM      3  C   UNL     1       1.167  -1.441  -0.871  0.00  0.00    +0.000 C 
ATOM      4  C   UNL     1       2.064  -2.239   1.211  0.00  0.00    +0.000 C 
ATOM      5  C   UNL     1       1.997  -0.158  -0.784  0.00  0.00    +0.000 C 
ATOM      6  C   UNL     1       2.923  -0.983   1.368  0.00  0.00    +0.000 C 
ENDROOT
BRANCH   2   8
ATOM      7  N   UNL     1       4.693   1.225   1.020  0.00  0.00    +0.000 NA
ATOM      8  C   UNL     1       4.276   0.494  -0.059  0.00  0.00    +0.000 A 
ATOM      9  C   UNL     1       4.924   0.581  -1.299  0.00  0.00    +0.000 A 
ATOM     10  C   UNL     1       6.017   1.431  -1.433  0.00  0.00    +0.000 A 
ATOM     11  C   UNL     1       5.759   2.039   0.852  0.00  0.00    +0.000 A 
ATOM     12  C   UNL     1       6.449   2.177  -0.342  0.00  0.00    +0.000 A 
ENDBRANCH   2   8
BRANCH   1  13
ATOM     13  C   UNL     1      -0.004  -3.141   0.370  0.00  0.00    +0.000 C 
BRANCH  13  14
ATOM     14  C   UNL     1      -1.315  -2.812  -0.349  0.00  0.00    +0.000 C 
BRANCH  14  15
ATOM     15  C   UNL     1      -2.122  -1.734   0.380  0.00  0.00    +0.000 C 
BRANCH  15  17
ATOM     16  O   UNL     1      -4.085  -2.291  -0.909  0.00  0.00    +0.000 OA
ATOM     17  C   UNL     1      -3.466  -1.442  -0.271  0.00  0.00    +0.000 C 
BRANCH  17  19
ATOM     18  F   UNL     1      -5.684   3.646   0.340  0.00  0.00    +0.000 F 
ATOM     19  C   UNL     1      -4.059  -0.084  -0.107  0.00  0.00    +0.000 A 
ATOM     20  C   UNL     1      -3.779   0.626   1.039  0.00  0.00    +0.000 A 
ATOM     21  C   UNL     1      -4.864   0.411  -1.109  0.00  0.00    +0.000 A 
ATOM     22  C   UNL     1      -4.332   1.897   1.191  0.00  0.00    +0.000 A 
ATOM     23  C   UNL     1      -5.418   1.683  -0.956  0.00  0.00    +0.000 A 
ATOM     24  C   UNL     1      -5.152   2.425   0.194  0.00  0.00    +0.000 A 
ENDBRANCH  17  19
ENDBRANCH  15  17
ENDBRANCH  14  15
ENDBRANCH  13  14
ENDBRANCH   1  13
TORSDOF 6
