MODEL 1
REMARK VINA RESULT:    -9.728      0.000      0.000
REMARK INTER + INTRA:         -13.724
REMARK INTER:                 -13.140
REMARK INTRA:                  -0.584
REMARK UNBOUND:                -0.584
REMARK  Name = 15443
REMARK  6 active torsions:
REMARK  status: ('A' for Active; 'I' for Inactive)
REMARK    1  A    between atoms: N_3  and  C_10
REMARK    2  A    between atoms: N_4  and  C_12
REMARK    3  A    between atoms: C_10  and  C_11
REMARK    4  A    between atoms: C_11  and  C_13
REMARK    5  A    between atoms: C_13  and  C_15
REMARK    6  A    between atoms: C_15  and  C_16
REMARK                            x       y       z     vdW  Elec       q    Type
REMARK                         _______ _______ _______ _____ _____    ______ ____
ROOT
ATOM      1  N   UNL     1      10.453   7.877  -8.942  0.00  0.00    +0.000 NA
ATOM      2  N   UNL     1      11.272   7.905  -6.206  0.00  0.00    +0.000 N 
ATOM      3  C   UNL     1      11.704   8.535  -8.547  0.00  0.00    +0.000 C 
ATOM      4  C   UNL     1      10.208   6.712  -8.082  0.00  0.00    +0.000 C 
ATOM      5  C   UNL     1      11.640   9.012  -7.094  0.00  0.00    +0.000 C 
ATOM      6  C   UNL     1      10.094   7.128  -6.614  0.00  0.00    +0.000 C 
ENDROOT
BRANCH   2   8
ATOM      7  N   UNL     1      11.793   9.202  -4.258  0.00  0.00    +0.000 NA
ATOM      8  C   UNL     1      11.566   7.984  -4.839  0.00  0.00    +0.000 A 
ATOM      9  C   UNL     1      11.620   6.796  -4.098  0.00  0.00    +0.000 A 
ATOM     10  C   UNL     1      11.911   6.858  -2.740  0.00  0.00    +0.000 A 
ATOM     11  C   UNL     1      12.071   9.223  -2.935  0.00  0.00    +0.000 A 
ATOM     12  C   UNL     1      12.142   8.091  -2.139  0.00  0.00    +0.000 A 
ENDBRANCH   2   8
BRANCH   1  13
ATOM     13  C   UNL     1      10.505   7.473 -10.347  0.00  0.00    +0.000 C 
BRANCH  13  14
ATOM     14  C   UNL     1       9.514   6.336 -10.608  0.00  0.00    +0.000 C 
BRANCH  14  15
ATOM     15  C   UNL     1       9.183   6.185 -12.095  0.00  0.00    +0.000 C 
BRANCH  15  17
ATOM     16  O   UNL     1       6.958   7.094 -12.317  0.00  0.00    +0.000 OA
ATOM     17  C   UNL     1       7.690   6.108 -12.377  0.00  0.00    +0.000 C 
BRANCH  17  19
ATOM     18  F   UNL     1       5.488   1.183 -13.819  0.00  0.00    +0.000 F 
ATOM     19  C   UNL     1       7.102   4.793 -12.761  0.00  0.00    +0.000 A 
ATOM     20  C   UNL     1       5.819   4.498 -12.357  0.00  0.00    +0.000 A 
ATOM     21  C   UNL     1       7.864   3.921 -13.506  0.00  0.00    +0.000 A 
ATOM     22  C   UNL     1       5.269   3.269 -12.718  0.00  0.00    +0.000 A 
ATOM     23  C   UNL     1       7.313   2.690 -13.867  0.00  0.00    +0.000 A 
ATOM     24  C   UNL     1       6.016   2.364 -13.472  0.00  0.00    +0.000 A 
ENDBRANCH  17  19
ENDBRANCH  15  17
ENDBRANCH  14  15
ENDBRANCH  13  14
ENDBRANCH   1  13
TORSDOF 6
ENDMDL
MODEL 2
REMARK VINA RESULT:    -9.385      4.014      9.502
REMARK INTER + INTRA:         -13.261
REMARK INTER:                 -12.800
REMARK INTRA:                  -0.461
REMARK UNBOUND:                -0.584
REMARK  Name = 15443
REMARK  6 active torsions:
REMARK  status: ('A' for Active; 'I' for Inactive)
REMARK    1  A    between atoms: N_3  and  C_10
REMARK    2  A    between atoms: N_4  and  C_12
REMARK    3  A    between atoms: C_10  and  C_11
REMARK    4  A    between atoms: C_11  and  C_13
REMARK    5  A    between atoms: C_13  and  C_15
REMARK    6  A    between atoms: C_15  and  C_16
REMARK                            x       y       z     vdW  Elec       q    Type
REMARK                         _______ _______ _______ _____ _____    ______ ____
ROOT
ATOM      1  N   UNL     1      11.045   7.022 -10.759  0.00  0.00    +0.000 NA
ATOM      2  N   UNL     1       8.939   5.517 -11.967  0.00  0.00    +0.000 N 
ATOM      3  C   UNL     1      10.816   7.094 -12.207  0.00  0.00    +0.000 C 
ATOM      4  C   UNL     1       9.767   6.840 -10.059  0.00  0.00    +0.000 C 
ATOM      5  C   UNL     1      10.159   5.813 -12.725  0.00  0.00    +0.000 C 
ATOM      6  C   UNL     1       9.076   5.550 -10.505  0.00  0.00    +0.000 C 
ENDROOT
BRANCH   2   8
ATOM      7  N   UNL     1       8.334   3.678 -13.381  0.00  0.00    +0.000 NA
ATOM      8  C   UNL     1       7.966   4.675 -12.518  0.00  0.00    +0.000 A 
ATOM      9  C   UNL     1       6.626   4.881 -12.163  0.00  0.00    +0.000 A 
ATOM     10  C   UNL     1       5.648   4.052 -12.702  0.00  0.00    +0.000 A 
ATOM     11  C   UNL     1       7.356   2.891 -13.883  0.00  0.00    +0.000 A 
ATOM     12  C   UNL     1       6.012   3.035 -13.579  0.00  0.00    +0.000 A 
ENDBRANCH   2   8
BRANCH   1  13
ATOM     13  C   UNL     1      11.720   8.229 -10.285  0.00  0.00    +0.000 C 
BRANCH  13  14
ATOM     14  C   UNL     1      11.041   8.752  -9.016  0.00  0.00    +0.000 C 
BRANCH  14  15
ATOM     15  C   UNL     1      11.730   8.256  -7.742  0.00  0.00    +0.000 C 
BRANCH  15  17
ATOM     16  O   UNL     1       9.568   7.956  -6.712  0.00  0.00    +0.000 OA
ATOM     17  C   UNL     1      10.780   8.098  -6.564  0.00  0.00    +0.000 C 
BRANCH  17  19
ATOM     18  F   UNL     1      12.907   8.075  -1.401  0.00  0.00    +0.000 F 
ATOM     19  C   UNL     1      11.347   8.091  -5.185  0.00  0.00    +0.000 A 
ATOM     20  C   UNL     1      11.350   6.911  -4.476  0.00  0.00    +0.000 A 
ATOM     21  C   UNL     1      11.848   9.267  -4.672  0.00  0.00    +0.000 A 
ATOM     22  C   UNL     1      11.882   6.905  -3.188  0.00  0.00    +0.000 A 
ATOM     23  C   UNL     1      12.380   9.261  -3.381  0.00  0.00    +0.000 A 
ATOM     24  C   UNL     1      12.396   8.080  -2.640  0.00  0.00    +0.000 A 
ENDBRANCH  17  19
ENDBRANCH  15  17
ENDBRANCH  14  15
ENDBRANCH  13  14
ENDBRANCH   1  13
TORSDOF 6
ENDMDL
MODEL 3
REMARK VINA RESULT:    -8.778      2.685      3.424
REMARK INTER + INTRA:         -12.441
REMARK INTER:                 -11.957
REMARK INTRA:                  -0.483
REMARK UNBOUND:                -0.584
REMARK  Name = 15443
REMARK  6 active torsions:
REMARK  status: ('A' for Active; 'I' for Inactive)
REMARK    1  A    between atoms: N_3  and  C_10
REMARK    2  A    between atoms: N_4  and  C_12
REMARK    3  A    between atoms: C_10  and  C_11
REMARK    4  A    between atoms: C_11  and  C_13
REMARK    5  A    between atoms: C_13  and  C_15
REMARK    6  A    between atoms: C_15  and  C_16
REMARK                            x       y       z     vdW  Elec       q    Type
REMARK                         _______ _______ _______ _____ _____    ______ ____
ROOT
ATOM      1  N   UNL     1      10.902   7.386  -9.490  0.00  0.00    +0.000 NA
ATOM      2  N   UNL     1      11.195   7.851  -6.686  0.00  0.00    +0.000 N 
ATOM      3  C   UNL     1       9.942   6.816  -8.538  0.00  0.00    +0.000 C 
ATOM      4  C   UNL     1      11.383   8.684  -8.998  0.00  0.00    +0.000 C 
ATOM      5  C   UNL     1      10.586   6.606  -7.165  0.00  0.00    +0.000 C 
ATOM      6  C   UNL     1      12.075   8.535  -7.642  0.00  0.00    +0.000 C 
ENDROOT
BRANCH   2   8
ATOM      7  N   UNL     1      11.596   9.274  -4.800  0.00  0.00    +0.000 NA
ATOM      8  C   UNL     1      11.451   8.017  -5.320  0.00  0.00    +0.000 A 
ATOM      9  C   UNL     1      11.552   6.874  -4.516  0.00  0.00    +0.000 A 
ATOM     10  C   UNL     1      11.805   7.023  -3.156  0.00  0.00    +0.000 A 
ATOM     11  C   UNL     1      11.841   9.380  -3.475  0.00  0.00    +0.000 A 
ATOM     12  C   UNL     1      11.953   8.296  -2.618  0.00  0.00    +0.000 A 
ENDBRANCH   2   8
BRANCH   1  13
ATOM     13  C   UNL     1      10.292   7.533 -10.810  0.00  0.00    +0.000 C 
BRANCH  13  14
ATOM     14  C   UNL     1      11.270   7.083 -11.898  0.00  0.00    +0.000 C 
BRANCH  14  15
ATOM     15  C   UNL     1      10.551   6.536 -13.135  0.00  0.00    +0.000 C 
BRANCH  15  17
ATOM     16  O   UNL     1       9.571   4.589 -12.100  0.00  0.00    +0.000 OA
ATOM     17  C   UNL     1      10.219   5.055 -13.035  0.00  0.00    +0.000 C 
BRANCH  17  19
ATOM     18  F   UNL     1      11.947   1.643 -17.104  0.00  0.00    +0.000 F 
ATOM     19  C   UNL     1      10.680   4.145 -14.122  0.00  0.00    +0.000 A 
ATOM     20  C   UNL     1      11.620   4.605 -15.016  0.00  0.00    +0.000 A 
ATOM     21  C   UNL     1      10.149   2.875 -14.191  0.00  0.00    +0.000 A 
ATOM     22  C   UNL     1      12.052   3.753 -16.032  0.00  0.00    +0.000 A 
ATOM     23  C   UNL     1      10.581   2.023 -15.208  0.00  0.00    +0.000 A 
ATOM     24  C   UNL     1      11.532   2.462 -16.128  0.00  0.00    +0.000 A 
ENDBRANCH  17  19
ENDBRANCH  15  17
ENDBRANCH  14  15
ENDBRANCH  13  14
ENDBRANCH   1  13
TORSDOF 6
ENDMDL
MODEL 4
REMARK VINA RESULT:    -8.702      4.355      9.812
REMARK INTER + INTRA:         -12.338
REMARK INTER:                 -11.761
REMARK INTRA:                  -0.576
REMARK UNBOUND:                -0.584
REMARK  Name = 15443
REMARK  6 active torsions:
REMARK  status: ('A' for Active; 'I' for Inactive)
REMARK    1  A    between atoms: N_3  and  C_10
REMARK    2  A    between atoms: N_4  and  C_12
REMARK    3  A    between atoms: C_10  and  C_11
REMARK    4  A    between atoms: C_11  and  C_13
REMARK    5  A    between atoms: C_13  and  C_15
REMARK    6  A    between atoms: C_15  and  C_16
REMARK                            x       y       z     vdW  Elec       q    Type
REMARK                         _______ _______ _______ _____ _____    ______ ____
ROOT
ATOM      1  N   UNL     1       9.005   6.178 -12.479  0.00  0.00    +0.000 NA
ATOM      2  N   UNL     1       9.488   3.668 -13.755  0.00  0.00    +0.000 N 
ATOM      3  C   UNL     1       8.126   5.032 -12.221  0.00  0.00    +0.000 C 
ATOM      4  C   UNL     1      10.379   5.712 -12.705  0.00  0.00    +0.000 C 
ATOM      5  C   UNL     1       8.119   4.064 -13.407  0.00  0.00    +0.000 C 
ATOM      6  C   UNL     1      10.448   4.768 -13.907  0.00  0.00    +0.000 C 
ENDROOT
BRANCH   2   8
ATOM      7  N   UNL     1       9.024   1.354 -14.176  0.00  0.00    +0.000 NA
ATOM      8  C   UNL     1       9.705   2.498 -14.491  0.00  0.00    +0.000 A 
ATOM      9  C   UNL     1      10.629   2.535 -15.545  0.00  0.00    +0.000 A 
ATOM     10  C   UNL     1      10.856   1.380 -16.287  0.00  0.00    +0.000 A 
ATOM     11  C   UNL     1       9.270   0.252 -14.920  0.00  0.00    +0.000 A 
ATOM     12  C   UNL     1      10.167   0.213 -15.975  0.00  0.00    +0.000 A 
ENDBRANCH   2   8
BRANCH   1  13
ATOM     13  C   UNL     1       8.962   7.120 -11.362  0.00  0.00    +0.000 C 
BRANCH  13  14
ATOM     14  C   UNL     1      10.205   6.957 -10.483  0.00  0.00    +0.000 C 
BRANCH  14  15
ATOM     15  C   UNL     1      10.723   8.298  -9.955  0.00  0.00    +0.000 C 
BRANCH  15  17
ATOM     16  O   UNL     1      13.094   8.095  -9.555  0.00  0.00    +0.000 OA
ATOM     17  C   UNL     1      11.962   8.165  -9.082  0.00  0.00    +0.000 C 
BRANCH  17  19
ATOM     18  F   UNL     1      11.324   8.082  -3.535  0.00  0.00    +0.000 F 
ATOM     19  C   UNL     1      11.793   8.143  -7.601  0.00  0.00    +0.000 A 
ATOM     20  C   UNL     1      12.188   9.243  -6.873  0.00  0.00    +0.000 A 
ATOM     21  C   UNL     1      11.246   7.023  -7.015  0.00  0.00    +0.000 A 
ATOM     22  C   UNL     1      12.028   9.223  -5.488  0.00  0.00    +0.000 A 
ATOM     23  C   UNL     1      11.086   7.003  -5.629  0.00  0.00    +0.000 A 
ATOM     24  C   UNL     1      11.477   8.102  -4.866  0.00  0.00    +0.000 A 
ENDBRANCH  17  19
ENDBRANCH  15  17
ENDBRANCH  14  15
ENDBRANCH  13  14
ENDBRANCH   1  13
TORSDOF 6
ENDMDL
MODEL 5
REMARK VINA RESULT:    -8.557      1.306      1.931
REMARK INTER + INTRA:         -12.142
REMARK INTER:                 -11.684
REMARK INTRA:                  -0.458
REMARK UNBOUND:                -0.584
REMARK  Name = 15443
REMARK  6 active torsions:
REMARK  status: ('A' for Active; 'I' for Inactive)
REMARK    1  A    between atoms: N_3  and  C_10
REMARK    2  A    between atoms: N_4  and  C_12
REMARK    3  A    between atoms: C_10  and  C_11
REMARK    4  A    between atoms: C_11  and  C_13
REMARK    5  A    between atoms: C_13  and  C_15
REMARK    6  A    between atoms: C_15  and  C_16
REMARK                            x       y       z     vdW  Elec       q    Type
REMARK                         _______ _______ _______ _____ _____    ______ ____
ROOT
ATOM      1  N   UNL     1       9.282   6.144 -10.118  0.00  0.00    +0.000 NA
ATOM      2  N   UNL     1      10.578   7.204  -7.803  0.00  0.00    +0.000 N 
ATOM      3  C   UNL     1      10.499   6.952 -10.252  0.00  0.00    +0.000 C 
ATOM      4  C   UNL     1       9.335   5.365  -8.874  0.00  0.00    +0.000 C 
ATOM      5  C   UNL     1      10.648   7.924  -9.079  0.00  0.00    +0.000 C 
ATOM      6  C   UNL     1       9.443   6.283  -7.655  0.00  0.00    +0.000 C 
ENDROOT
BRANCH   2   8
ATOM      7  N   UNL     1      11.622   9.056  -6.694  0.00  0.00    +0.000 NA
ATOM      8  C   UNL     1      11.105   7.789  -6.646  0.00  0.00    +0.000 A 
ATOM      9  C   UNL     1      11.088   7.048  -5.456  0.00  0.00    +0.000 A 
ATOM     10  C   UNL     1      11.608   7.617  -4.298  0.00  0.00    +0.000 A 
ATOM     11  C   UNL     1      12.117   9.575  -5.549  0.00  0.00    +0.000 A 
ATOM     12  C   UNL     1      12.134   8.903  -4.336  0.00  0.00    +0.000 A 
ENDBRANCH   2   8
BRANCH   1  13
ATOM     13  C   UNL     1       9.123   5.258 -11.270  0.00  0.00    +0.000 C 
BRANCH  13  14
ATOM     14  C   UNL     1       9.042   6.078 -12.560  0.00  0.00    +0.000 C 
BRANCH  14  15
ATOM     15  C   UNL     1       7.687   5.927 -13.259  0.00  0.00    +0.000 C 
BRANCH  15  17
ATOM     16  O   UNL     1       6.034   5.535 -11.545  0.00  0.00    +0.000 OA
ATOM     17  C   UNL     1       6.695   5.080 -12.476  0.00  0.00    +0.000 C 
BRANCH  17  19
ATOM     18  F   UNL     1       5.982  -0.256 -13.959  0.00  0.00    +0.000 F 
ATOM     19  C   UNL     1       6.505   3.655 -12.871  0.00  0.00    +0.000 A 
ATOM     20  C   UNL     1       5.507   2.927 -12.262  0.00  0.00    +0.000 A 
ATOM     21  C   UNL     1       7.334   3.120 -13.832  0.00  0.00    +0.000 A 
ATOM     22  C   UNL     1       5.328   1.595 -12.634  0.00  0.00    +0.000 A 
ATOM     23  C   UNL     1       7.155   1.786 -14.202  0.00  0.00    +0.000 A 
ATOM     24  C   UNL     1       6.153   1.024 -13.603  0.00  0.00    +0.000 A 
ENDBRANCH  17  19
ENDBRANCH  15  17
ENDBRANCH  14  15
ENDBRANCH  13  14
ENDBRANCH   1  13
TORSDOF 6
ENDMDL
MODEL 6
REMARK VINA RESULT:    -8.243      4.573      9.825
REMARK INTER + INTRA:         -11.718
REMARK INTER:                 -11.077
REMARK INTRA:                  -0.641
REMARK UNBOUND:                -0.584
REMARK  Name = 15443
REMARK  6 active torsions:
REMARK  status: ('A' for Active; 'I' for Inactive)
REMARK    1  A    between atoms: N_3  and  C_10
REMARK    2  A    between atoms: N_4  and  C_12
REMARK    3  A    between atoms: C_10  and  C_11
REMARK    4  A    between atoms: C_11  and  C_13
REMARK    5  A    between atoms: C_13  and  C_15
REMARK    6  A    between atoms: C_15  and  C_16
REMARK                            x       y       z     vdW  Elec       q    Type
REMARK                         _______ _______ _______ _____ _____    ______ ____
ROOT
ATOM      1  N   UNL     1       9.722   4.055 -14.000  0.00  0.00    +0.000 NA
ATOM      2  N   UNL     1       7.511   2.257 -14.202  0.00  0.00    +0.000 N 
ATOM      3  C   UNL     1       8.570   4.189 -13.100  0.00  0.00    +0.000 C 
ATOM      4  C   UNL     1       9.943   2.639 -14.321  0.00  0.00    +0.000 C 
ATOM      5  C   UNL     1       7.298   3.635 -13.747  0.00  0.00    +0.000 C 
ATOM      6  C   UNL     1       8.718   2.034 -15.009  0.00  0.00    +0.000 C 
ENDROOT
BRANCH   2   8
ATOM      7  N   UNL     1       6.323   0.691 -15.574  0.00  0.00    +0.000 NA
ATOM      8  C   UNL     1       6.410   1.421 -14.420  0.00  0.00    +0.000 A 
ATOM      9  C   UNL     1       5.416   1.356 -13.433  0.00  0.00    +0.000 A 
ATOM     10  C   UNL     1       4.316   0.528 -13.635  0.00  0.00    +0.000 A 
ATOM     11  C   UNL     1       5.240  -0.103 -15.734  0.00  0.00    +0.000 A 
ATOM     12  C   UNL     1       4.219  -0.218 -14.804  0.00  0.00    +0.000 A 
ENDBRANCH   2   8
BRANCH   1  13
ATOM     13  C   UNL     1      10.919   4.635 -13.393  0.00  0.00    +0.000 C 
BRANCH  13  14
ATOM     14  C   UNL     1      10.927   6.154 -13.587  0.00  0.00    +0.000 C 
BRANCH  14  15
ATOM     15  C   UNL     1      11.521   6.890 -12.383  0.00  0.00    +0.000 C 
BRANCH  15  17
ATOM     16  O   UNL     1       9.416   7.925 -11.813  0.00  0.00    +0.000 OA
ATOM     17  C   UNL     1      10.468   7.423 -11.422  0.00  0.00    +0.000 C 
BRANCH  17  19
ATOM     18  F   UNL     1      11.400   6.993  -5.933  0.00  0.00    +0.000 F 
ATOM     19  C   UNL     1      10.716   7.309  -9.956  0.00  0.00    +0.000 A 
ATOM     20  C   UNL     1       9.905   6.483  -9.211  0.00  0.00    +0.000 A 
ATOM     21  C   UNL     1      11.748   8.033  -9.402  0.00  0.00    +0.000 A 
ATOM     22  C   UNL     1      10.139   6.374  -7.841  0.00  0.00    +0.000 A 
ATOM     23  C   UNL     1      11.981   7.925  -8.030  0.00  0.00    +0.000 A 
ATOM     24  C   UNL     1      11.176   7.096  -7.250  0.00  0.00    +0.000 A 
ENDBRANCH  17  19
ENDBRANCH  15  17
ENDBRANCH  14  15
ENDBRANCH  13  14
ENDBRANCH   1  13
TORSDOF 6
ENDMDL
MODEL 7
REMARK VINA RESULT:    -8.136      3.444      4.164
REMARK INTER + INTRA:         -11.573
REMARK INTER:                 -11.031
REMARK INTRA:                  -0.542
REMARK UNBOUND:                -0.584
REMARK  Name = 15443
REMARK  6 active torsions:
REMARK  status: ('A' for Active; 'I' for Inactive)
REMARK    1  A    between atoms: N_3  and  C_10
REMARK    2  A    between atoms: N_4  and  C_12
REMARK    3  A    between atoms: C_10  and  C_11
REMARK    4  A    between atoms: C_11  and  C_13
REMARK    5  A    between atoms: C_13  and  C_15
REMARK    6  A    between atoms: C_15  and  C_16
REMARK                            x       y       z     vdW  Elec       q    Type
REMARK                         _______ _______ _______ _____ _____    ______ ____
ROOT
ATOM      1  N   UNL     1      10.908   7.028 -10.698  0.00  0.00    +0.000 NA
ATOM      2  N   UNL     1      11.221   7.710  -7.942  0.00  0.00    +0.000 N 
ATOM      3  C   UNL     1       9.789   6.870  -9.762  0.00  0.00    +0.000 C 
ATOM      4  C   UNL     1      11.728   8.182 -10.308  0.00  0.00    +0.000 C 
ATOM      5  C   UNL     1      10.293   6.645  -8.334  0.00  0.00    +0.000 C 
ATOM      6  C   UNL     1      12.297   8.000  -8.900  0.00  0.00    +0.000 C 
ENDROOT
BRANCH   2   8
ATOM      7  N   UNL     1      11.986   9.156  -6.189  0.00  0.00    +0.000 NA
ATOM      8  C   UNL     1      11.465   7.954  -6.586  0.00  0.00    +0.000 A 
ATOM      9  C   UNL     1      11.163   6.945  -5.662  0.00  0.00    +0.000 A 
ATOM     10  C   UNL     1      11.399   7.172  -4.310  0.00  0.00    +0.000 A 
ATOM     11  C   UNL     1      12.200   9.341  -4.867  0.00  0.00    +0.000 A 
ATOM     12  C   UNL     1      11.927   8.390  -3.897  0.00  0.00    +0.000 A 
ENDBRANCH   2   8
BRANCH   1  13
ATOM     13  C   UNL     1      10.415   7.189 -12.066  0.00  0.00    +0.000 C 
BRANCH  13  14
ATOM     14  C   UNL     1      11.568   7.050 -13.063  0.00  0.00    +0.000 C 
BRANCH  14  15
ATOM     15  C   UNL     1      11.805   5.594 -13.477  0.00  0.00    +0.000 C 
BRANCH  15  17
ATOM     16  O   UNL     1      12.491   6.345 -15.665  0.00  0.00    +0.000 OA
ATOM     17  C   UNL     1      12.074   5.425 -14.965  0.00  0.00    +0.000 C 
BRANCH  17  19
ATOM     18  F   UNL     1      11.207   0.424 -17.291  0.00  0.00    +0.000 F 
ATOM     19  C   UNL     1      11.843   4.089 -15.585  0.00  0.00    +0.000 A 
ATOM     20  C   UNL     1      11.055   3.178 -14.918  0.00  0.00    +0.000 A 
ATOM     21  C   UNL     1      12.425   3.817 -16.803  0.00  0.00    +0.000 A 
ATOM     22  C   UNL     1      10.838   1.929 -15.500  0.00  0.00    +0.000 A 
ATOM     23  C   UNL     1      12.208   2.567 -17.384  0.00  0.00    +0.000 A 
ATOM     24  C   UNL     1      11.415   1.624 -16.732  0.00  0.00    +0.000 A 
ENDBRANCH  17  19
ENDBRANCH  15  17
ENDBRANCH  14  15
ENDBRANCH  13  14
ENDBRANCH   1  13
TORSDOF 6
ENDMDL
MODEL 8
REMARK VINA RESULT:    -7.924      1.780      2.916
REMARK INTER + INTRA:         -11.287
REMARK INTER:                 -10.630
REMARK INTRA:                  -0.657
REMARK UNBOUND:                -0.584
REMARK  Name = 15443
REMARK  6 active torsions:
REMARK  status: ('A' for Active; 'I' for Inactive)
REMARK    1  A    between atoms: N_3  and  C_10
REMARK    2  A    between atoms: N_4  and  C_12
REMARK    3  A    between atoms: C_10  and  C_11
REMARK    4  A    between atoms: C_11  and  C_13
REMARK    5  A    between atoms: C_13  and  C_15
REMARK    6  A    between atoms: C_15  and  C_16
REMARK                            x       y       z     vdW  Elec       q    Type
REMARK                         _______ _______ _______ _____ _____    ______ ____
ROOT
ATOM      1  N   UNL     1       9.454   6.664 -11.016  0.00  0.00    +0.000 NA
ATOM      2  N   UNL     1      10.571   7.350  -8.478  0.00  0.00    +0.000 N 
ATOM      3  C   UNL     1      10.656   7.503 -10.935  0.00  0.00    +0.000 C 
ATOM      4  C   UNL     1       9.447   5.693  -9.915  0.00  0.00    +0.000 C 
ATOM      5  C   UNL     1      10.704   8.271  -9.612  0.00  0.00    +0.000 C 
ATOM      6  C   UNL     1       9.454   6.400  -8.559  0.00  0.00    +0.000 C 
ENDROOT
BRANCH   2   8
ATOM      7  N   UNL     1      10.803   6.930  -6.129  0.00  0.00    +0.000 NA
ATOM      8  C   UNL     1      11.008   7.745  -7.209  0.00  0.00    +0.000 A 
ATOM      9  C   UNL     1      11.653   8.983  -7.081  0.00  0.00    +0.000 A 
ATOM     10  C   UNL     1      12.094   9.390  -5.826  0.00  0.00    +0.000 A 
ATOM     11  C   UNL     1      11.246   7.358  -4.926  0.00  0.00    +0.000 A 
ATOM     12  C   UNL     1      11.891   8.568  -4.723  0.00  0.00    +0.000 A 
ENDBRANCH   2   8
BRANCH   1  13
ATOM     13  C   UNL     1       9.392   5.977 -12.305  0.00  0.00    +0.000 C 
BRANCH  13  14
ATOM     14  C   UNL     1       9.540   4.466 -12.107  0.00  0.00    +0.000 C 
BRANCH  14  15
ATOM     15  C   UNL     1      10.093   3.769 -13.353  0.00  0.00    +0.000 C 
BRANCH  15  17
ATOM     16  O   UNL     1       9.112   3.944 -15.551  0.00  0.00    +0.000 OA
ATOM     17  C   UNL     1       9.034   3.493 -14.410  0.00  0.00    +0.000 C 
BRANCH  17  19
ATOM     18  F   UNL     1       4.698   0.243 -13.064  0.00  0.00    +0.000 F 
ATOM     19  C   UNL     1       7.876   2.625 -14.052  0.00  0.00    +0.000 A 
ATOM     20  C   UNL     1       8.014   1.259 -14.164  0.00  0.00    +0.000 A 
ATOM     21  C   UNL     1       6.712   3.221 -13.621  0.00  0.00    +0.000 A 
ATOM     22  C   UNL     1       6.931   0.448 -13.827  0.00  0.00    +0.000 A 
ATOM     23  C   UNL     1       5.628   2.408 -13.284  0.00  0.00    +0.000 A 
ATOM     24  C   UNL     1       5.739   1.022 -13.387  0.00  0.00    +0.000 A 
ENDBRANCH  17  19
ENDBRANCH  15  17
ENDBRANCH  14  15
ENDBRANCH  13  14
ENDBRANCH   1  13
TORSDOF 6
ENDMDL
MODEL 9
REMARK VINA RESULT:    -7.441      2.760      4.135
REMARK INTER + INTRA:         -10.635
REMARK INTER:                  -9.870
REMARK INTRA:                  -0.765
REMARK UNBOUND:                -0.584
REMARK  Name = 15443
REMARK  6 active torsions:
REMARK  status: ('A' for Active; 'I' for Inactive)
REMARK    1  A    between atoms: N_3  and  C_10
REMARK    2  A    between atoms: N_4  and  C_12
REMARK    3  A    between atoms: C_10  and  C_11
REMARK    4  A    between atoms: C_11  and  C_13
REMARK    5  A    between atoms: C_13  and  C_15
REMARK    6  A    between atoms: C_15  and  C_16
REMARK                            x       y       z     vdW  Elec       q    Type
REMARK                         _______ _______ _______ _____ _____    ______ ____
ROOT
ATOM      1  N   UNL     1       8.912   5.842 -12.207  0.00  0.00    +0.000 NA
ATOM      2  N   UNL     1      10.197   6.797  -9.841  0.00  0.00    +0.000 N 
ATOM      3  C   UNL     1      10.110   6.685 -12.300  0.00  0.00    +0.000 C 
ATOM      4  C   UNL     1       8.991   4.994 -11.010  0.00  0.00    +0.000 C 
ATOM      5  C   UNL     1      10.243   7.591 -11.073  0.00  0.00    +0.000 C 
ATOM      6  C   UNL     1       9.085   5.843  -9.741  0.00  0.00    +0.000 C 
ENDROOT
BRANCH   2   8
ATOM      7  N   UNL     1      11.478   8.464  -8.689  0.00  0.00    +0.000 NA
ATOM      8  C   UNL     1      10.718   7.327  -8.655  0.00  0.00    +0.000 A 
ATOM      9  C   UNL     1      10.440   6.666  -7.450  0.00  0.00    +0.000 A 
ATOM     10  C   UNL     1      10.950   7.180  -6.263  0.00  0.00    +0.000 A 
ATOM     11  C   UNL     1      11.956   8.935  -7.515  0.00  0.00    +0.000 A 
ATOM     12  C   UNL     1      11.723   8.336  -6.287  0.00  0.00    +0.000 A 
ENDBRANCH   2   8
BRANCH   1  13
ATOM     13  C   UNL     1       8.767   5.020 -13.408  0.00  0.00    +0.000 C 
BRANCH  13  14
ATOM     14  C   UNL     1      10.144   4.680 -13.985  0.00  0.00    +0.000 C 
BRANCH  14  15
ATOM     15  C   UNL     1      10.502   3.203 -13.800  0.00  0.00    +0.000 C 
BRANCH  15  17
ATOM     16  O   UNL     1      11.069   2.083 -15.862  0.00  0.00    +0.000 OA
ATOM     17  C   UNL     1      10.208   2.352 -15.027  0.00  0.00    +0.000 C 
BRANCH  17  19
ATOM     18  F   UNL     1       5.049   0.323 -15.697  0.00  0.00    +0.000 F 
ATOM     19  C   UNL     1       8.831   1.809 -15.206  0.00  0.00    +0.000 A 
ATOM     20  C   UNL     1       8.245   1.135 -14.158  0.00  0.00    +0.000 A 
ATOM     21  C   UNL     1       8.196   2.003 -16.413  0.00  0.00    +0.000 A 
ATOM     22  C   UNL     1       6.956   0.629 -14.325  0.00  0.00    +0.000 A 
ATOM     23  C   UNL     1       6.906   1.496 -16.580  0.00  0.00    +0.000 A 
ATOM     24  C   UNL     1       6.287   0.809 -15.536  0.00  0.00    +0.000 A 
ENDBRANCH  17  19
ENDBRANCH  15  17
ENDBRANCH  14  15
ENDBRANCH  13  14
ENDBRANCH   1  13
TORSDOF 6
ENDMDL
MODEL 10
REMARK VINA RESULT:    -7.404      2.551      3.470
REMARK INTER + INTRA:         -10.585
REMARK INTER:                 -10.069
REMARK INTRA:                  -0.516
REMARK UNBOUND:                -0.584
REMARK  Name = 15443
REMARK  6 active torsions:
REMARK  status: ('A' for Active; 'I' for Inactive)
REMARK    1  A    between atoms: N_3  and  C_10
REMARK    2  A    between atoms: N_4  and  C_12
REMARK    3  A    between atoms: C_10  and  C_11
REMARK    4  A    between atoms: C_11  and  C_13
REMARK    5  A    between atoms: C_13  and  C_15
REMARK    6  A    between atoms: C_15  and  C_16
REMARK                            x       y       z     vdW  Elec       q    Type
REMARK                         _______ _______ _______ _____ _____    ______ ____
ROOT
ATOM      1  N   UNL     1      11.302   6.898 -11.720  0.00  0.00    +0.000 NA
ATOM      2  N   UNL     1      11.260   8.220  -9.188  0.00  0.00    +0.000 N 
ATOM      3  C   UNL     1      10.037   7.382 -11.155  0.00  0.00    +0.000 C 
ATOM      4  C   UNL     1      12.398   7.795 -11.333  0.00  0.00    +0.000 C 
ATOM      5  C   UNL     1      10.101   7.436  -9.627  0.00  0.00    +0.000 C 
ATOM      6  C   UNL     1      12.541   7.862  -9.812  0.00  0.00    +0.000 C 
ENDROOT
BRANCH   2   8
ATOM      7  N   UNL     1      12.479   9.082  -7.313  0.00  0.00    +0.000 NA
ATOM      8  C   UNL     1      11.285   8.759  -7.897  0.00  0.00    +0.000 A 
ATOM      9  C   UNL     1      10.066   8.954  -7.232  0.00  0.00    +0.000 A 
ATOM     10  C   UNL     1      10.074   9.490  -5.948  0.00  0.00    +0.000 A 
ATOM     11  C   UNL     1      12.447   9.601  -6.065  0.00  0.00    +0.000 A 
ATOM     12  C   UNL     1      11.282   9.822  -5.347  0.00  0.00    +0.000 A 
ENDBRANCH   2   8
BRANCH   1  13
ATOM     13  C   UNL     1      11.211   6.800 -13.176  0.00  0.00    +0.000 C 
BRANCH  13  14
ATOM     14  C   UNL     1      11.246   5.332 -13.611  0.00  0.00    +0.000 C 
BRANCH  14  15
ATOM     15  C   UNL     1       9.844   4.757 -13.826  0.00  0.00    +0.000 C 
BRANCH  15  17
ATOM     16  O   UNL     1      10.735   2.541 -13.477  0.00  0.00    +0.000 OA
ATOM     17  C   UNL     1       9.821   3.238 -13.912  0.00  0.00    +0.000 C 
BRANCH  17  19
ATOM     18  F   UNL     1       5.379   0.759 -16.217  0.00  0.00    +0.000 F 
ATOM     19  C   UNL     1       8.635   2.575 -14.527  0.00  0.00    +0.000 A 
ATOM     20  C   UNL     1       7.497   2.418 -13.767  0.00  0.00    +0.000 A 
ATOM     21  C   UNL     1       8.721   2.145 -15.833  0.00  0.00    +0.000 A 
ATOM     22  C   UNL     1       6.388   1.800 -14.343  0.00  0.00    +0.000 A 
ATOM     23  C   UNL     1       7.611   1.526 -16.408  0.00  0.00    +0.000 A 
ATOM     24  C   UNL     1       6.445   1.354 -15.663  0.00  0.00    +0.000 A 
ENDBRANCH  17  19
ENDBRANCH  15  17
ENDBRANCH  14  15
ENDBRANCH  13  14
ENDBRANCH   1  13
TORSDOF 6
ENDMDL
