MODEL 1
REMARK VINA RESULT:   -10.706      0.000      0.000
REMARK INTER + INTRA:         -15.282
REMARK INTER:                 -14.462
REMARK INTRA:                  -0.821
REMARK UNBOUND:                -0.821
REMARK  Name = 3168
REMARK  6 active torsions:
REMARK  status: ('A' for Active; 'I' for Inactive)
REMARK    1  A    between atoms: N_4  and  C_11
REMARK    2  A    between atoms: N_5  and  C_10
REMARK    3  A    between atoms: C_11  and  C_13
REMARK    4  A    between atoms: C_13  and  C_15
REMARK    5  A    between atoms: C_15  and  C_19
REMARK    6  A    between atoms: C_19  and  C_23
REMARK                            x       y       z     vdW  Elec       q    Type
REMARK                         _______ _______ _______ _____ _____    ______ ____
ROOT
ATOM      1  N   UNL     1      10.939   7.233 -10.458  0.00  0.00    +0.000 NA
ATOM      2  C   UNL     1       9.730   6.649  -9.865  0.00  0.00    +0.000 C 
ATOM      3  C   UNL     1       9.426   5.287 -10.508  0.00  0.00    +0.000 C 
ATOM      4  C   UNL     1      10.746   7.492 -11.894  0.00  0.00    +0.000 C 
ATOM      5  C   UNL     1       9.542   5.316 -12.006  0.00  0.00    +0.000 C 
ATOM      6  C   UNL     1      10.135   6.338 -12.640  0.00  0.00    +0.000 C 
ENDROOT
BRANCH   5   8
ATOM      7  O   UNL     1      10.948   3.197 -13.583  0.00  0.00    +0.000 OA
ATOM      8  N   UNL     1       9.002   4.266 -12.693  0.00  0.00    +0.000 N 
ATOM      9  N   UNL     1       8.762   2.394 -13.971  0.00  0.00    +0.000 N 
ATOM     10  C   UNL     1       7.631   3.964 -12.796  0.00  0.00    +0.000 A 
ATOM     11  C   UNL     1       9.736   3.281 -13.433  0.00  0.00    +0.000 A 
ATOM     12  C   UNL     1       7.495   2.820 -13.579  0.00  0.00    +0.000 A 
ATOM     13  C   UNL     1       6.527   4.603 -12.269  0.00  0.00    +0.000 A 
ATOM     14  C   UNL     1       6.270   2.261 -13.872  0.00  0.00    +0.000 A 
ATOM     15  C   UNL     1       5.271   4.056 -12.552  0.00  0.00    +0.000 A 
ATOM     16  C   UNL     1       5.144   2.897 -13.345  0.00  0.00    +0.000 A 
ATOM     17  H   UNL     1       8.947   1.582 -14.548  0.00  0.00    +0.000 HD
ENDBRANCH   5   8
BRANCH   1  18
ATOM     18  C   UNL     1      11.329   8.456  -9.759  0.00  0.00    +0.000 C 
BRANCH  18  19
ATOM     19  C   UNL     1      11.981   8.114  -8.418  0.00  0.00    +0.000 C 
BRANCH  19  20
ATOM     20  C   UNL     1      11.334   8.863  -7.249  0.00  0.00    +0.000 C 
BRANCH  20  22
ATOM     21  O   UNL     1       9.856   7.151  -6.406  0.00  0.00    +0.000 OA
ATOM     22  C   UNL     1      10.771   7.940  -6.178  0.00  0.00    +0.000 C 
BRANCH  22  24
ATOM     23  F   UNL     1      13.004   8.109  -1.064  0.00  0.00    +0.000 F 
ATOM     24  C   UNL     1      11.366   7.984  -4.812  0.00  0.00    +0.000 A 
ATOM     25  C   UNL     1      11.695   9.209  -4.275  0.00  0.00    +0.000 A 
ATOM     26  C   UNL     1      11.565   6.800  -4.138  0.00  0.00    +0.000 A 
ATOM     27  C   UNL     1      12.254   9.251  -2.997  0.00  0.00    +0.000 A 
ATOM     28  C   UNL     1      12.124   6.842  -2.861  0.00  0.00    +0.000 A 
ATOM     29  C   UNL     1      12.468   8.068  -2.290  0.00  0.00    +0.000 A 
ENDBRANCH  22  24
ENDBRANCH  20  22
ENDBRANCH  19  20
ENDBRANCH  18  19
ENDBRANCH   1  18
TORSDOF 6
ENDMDL
MODEL 2
REMARK VINA RESULT:   -10.695      1.348      2.539
REMARK INTER + INTRA:         -15.267
REMARK INTER:                 -14.509
REMARK INTRA:                  -0.758
REMARK UNBOUND:                -0.821
REMARK  Name = 3168
REMARK  6 active torsions:
REMARK  status: ('A' for Active; 'I' for Inactive)
REMARK    1  A    between atoms: N_4  and  C_11
REMARK    2  A    between atoms: N_5  and  C_10
REMARK    3  A    between atoms: C_11  and  C_13
REMARK    4  A    between atoms: C_13  and  C_15
REMARK    5  A    between atoms: C_15  and  C_19
REMARK    6  A    between atoms: C_19  and  C_23
REMARK                            x       y       z     vdW  Elec       q    Type
REMARK                         _______ _______ _______ _____ _____    ______ ____
ROOT
ATOM      1  N   UNL     1      10.228   7.730 -10.419  0.00  0.00    +0.000 NA
ATOM      2  C   UNL     1      10.866   7.344 -11.684  0.00  0.00    +0.000 C 
ATOM      3  C   UNL     1       9.880   6.551 -12.557  0.00  0.00    +0.000 C 
ATOM      4  C   UNL     1       9.853   6.540  -9.637  0.00  0.00    +0.000 C 
ATOM      5  C   UNL     1       9.139   5.498 -11.782  0.00  0.00    +0.000 C 
ATOM      6  C   UNL     1       9.142   5.487 -10.441  0.00  0.00    +0.000 C 
ENDROOT
BRANCH   5   8
ATOM      7  O   UNL     1       6.197   4.972 -11.928  0.00  0.00    +0.000 OA
ATOM      8  N   UNL     1       8.479   4.544 -12.503  0.00  0.00    +0.000 N 
ATOM      9  N   UNL     1       6.836   3.250 -13.410  0.00  0.00    +0.000 N 
ATOM     10  C   UNL     1       9.074   3.589 -13.349  0.00  0.00    +0.000 A 
ATOM     11  C   UNL     1       7.059   4.345 -12.528  0.00  0.00    +0.000 A 
ATOM     12  C   UNL     1       8.063   2.804 -13.897  0.00  0.00    +0.000 A 
ATOM     13  C   UNL     1      10.400   3.366 -13.662  0.00  0.00    +0.000 A 
ATOM     14  C   UNL     1       8.317   1.771 -14.773  0.00  0.00    +0.000 A 
ATOM     15  C   UNL     1      10.684   2.322 -14.549  0.00  0.00    +0.000 A 
ATOM     16  C   UNL     1       9.653   1.534 -15.099  0.00  0.00    +0.000 A 
ATOM     17  H   UNL     1       5.938   2.851 -13.651  0.00  0.00    +0.000 HD
ENDBRANCH   5   8
BRANCH   1  18
ATOM     18  C   UNL     1      11.098   8.609  -9.639  0.00  0.00    +0.000 C 
BRANCH  18  19
ATOM     19  C   UNL     1      11.717   7.839  -8.471  0.00  0.00    +0.000 C 
BRANCH  19  20
ATOM     20  C   UNL     1      11.680   8.636  -7.164  0.00  0.00    +0.000 C 
BRANCH  20  22
ATOM     21  O   UNL     1       9.878   7.314  -6.252  0.00  0.00    +0.000 OA
ATOM     22  C   UNL     1      10.920   7.932  -6.049  0.00  0.00    +0.000 C 
BRANCH  22  24
ATOM     23  F   UNL     1      12.989   8.115  -0.866  0.00  0.00    +0.000 F 
ATOM     24  C   UNL     1      11.474   7.982  -4.666  0.00  0.00    +0.000 A 
ATOM     25  C   UNL     1      11.646   6.800  -3.981  0.00  0.00    +0.000 A 
ATOM     26  C   UNL     1      11.791   9.206  -4.123  0.00  0.00    +0.000 A 
ATOM     27  C   UNL     1      12.163   6.845  -2.685  0.00  0.00    +0.000 A 
ATOM     28  C   UNL     1      12.307   9.253  -2.828  0.00  0.00    +0.000 A 
ATOM     29  C   UNL     1      12.493   8.071  -2.109  0.00  0.00    +0.000 A 
ENDBRANCH  22  24
ENDBRANCH  20  22
ENDBRANCH  19  20
ENDBRANCH  18  19
ENDBRANCH   1  18
TORSDOF 6
ENDMDL
MODEL 3
REMARK VINA RESULT:   -10.570      3.874     10.113
REMARK INTER + INTRA:         -15.098
REMARK INTER:                 -14.373
REMARK INTRA:                  -0.725
REMARK UNBOUND:                -0.821
REMARK  Name = 3168
REMARK  6 active torsions:
REMARK  status: ('A' for Active; 'I' for Inactive)
REMARK    1  A    between atoms: N_4  and  C_11
REMARK    2  A    between atoms: N_5  and  C_10
REMARK    3  A    between atoms: C_11  and  C_13
REMARK    4  A    between atoms: C_13  and  C_15
REMARK    5  A    between atoms: C_15  and  C_19
REMARK    6  A    between atoms: C_19  and  C_23
REMARK                            x       y       z     vdW  Elec       q    Type
REMARK                         _______ _______ _______ _____ _____    ______ ____
ROOT
ATOM      1  N   UNL     1      10.064   6.159  -8.835  0.00  0.00    +0.000 NA
ATOM      2  C   UNL     1      10.757   7.405  -9.183  0.00  0.00    +0.000 C 
ATOM      3  C   UNL     1      11.532   7.941  -7.968  0.00  0.00    +0.000 C 
ATOM      4  C   UNL     1       9.064   6.392  -7.781  0.00  0.00    +0.000 C 
ATOM      5  C   UNL     1      10.721   7.906  -6.703  0.00  0.00    +0.000 C 
ATOM      6  C   UNL     1       9.579   7.206  -6.626  0.00  0.00    +0.000 C 
ENDROOT
BRANCH   5   8
ATOM      7  O   UNL     1      11.130  10.863  -6.498  0.00  0.00    +0.000 OA
ATOM      8  N   UNL     1      11.188   8.630  -5.644  0.00  0.00    +0.000 N 
ATOM      9  N   UNL     1      11.865  10.353  -4.314  0.00  0.00    +0.000 N 
ATOM     10  C   UNL     1      11.581   8.108  -4.397  0.00  0.00    +0.000 A 
ATOM     11  C   UNL     1      11.361  10.053  -5.611  0.00  0.00    +0.000 A 
ATOM     12  C   UNL     1      11.993   9.168  -3.592  0.00  0.00    +0.000 A 
ATOM     13  C   UNL     1      11.603   6.809  -3.931  0.00  0.00    +0.000 A 
ATOM     14  C   UNL     1      12.441   8.991  -2.302  0.00  0.00    +0.000 A 
ATOM     15  C   UNL     1      12.055   6.602  -2.623  0.00  0.00    +0.000 A 
ATOM     16  C   UNL     1      12.470   7.682  -1.817  0.00  0.00    +0.000 A 
ATOM     17  H   UNL     1      12.097  11.273  -3.961  0.00  0.00    +0.000 HD
ENDBRANCH   5   8
BRANCH   1  18
ATOM     18  C   UNL     1       9.444   5.556 -10.014  0.00  0.00    +0.000 C 
BRANCH  18  19
ATOM     19  C   UNL     1       9.574   6.493 -11.216  0.00  0.00    +0.000 C 
BRANCH  19  20
ATOM     20  C   UNL     1       9.051   5.857 -12.507  0.00  0.00    +0.000 C 
BRANCH  20  22
ATOM     21  O   UNL     1       6.803   6.725 -12.374  0.00  0.00    +0.000 OA
ATOM     22  C   UNL     1       7.533   5.755 -12.559  0.00  0.00    +0.000 C 
BRANCH  22  24
ATOM     23  F   UNL     1       5.224   0.799 -13.693  0.00  0.00    +0.000 F 
ATOM     24  C   UNL     1       6.917   4.432 -12.864  0.00  0.00    +0.000 A 
ATOM     25  C   UNL     1       5.689   4.134 -12.315  0.00  0.00    +0.000 A 
ATOM     26  C   UNL     1       7.597   3.557 -13.680  0.00  0.00    +0.000 A 
ATOM     27  C   UNL     1       5.112   2.896 -12.598  0.00  0.00    +0.000 A 
ATOM     28  C   UNL     1       7.021   2.318 -13.963  0.00  0.00    +0.000 A 
ATOM     29  C   UNL     1       5.778   1.988 -13.422  0.00  0.00    +0.000 A 
ENDBRANCH  22  24
ENDBRANCH  20  22
ENDBRANCH  19  20
ENDBRANCH  18  19
ENDBRANCH   1  18
TORSDOF 6
ENDMDL
MODEL 4
REMARK VINA RESULT:   -10.067      2.807      3.504
REMARK INTER + INTRA:         -14.418
REMARK INTER:                 -14.208
REMARK INTRA:                  -0.210
REMARK UNBOUND:                -0.821
REMARK  Name = 3168
REMARK  6 active torsions:
REMARK  status: ('A' for Active; 'I' for Inactive)
REMARK    1  A    between atoms: N_4  and  C_11
REMARK    2  A    between atoms: N_5  and  C_10
REMARK    3  A    between atoms: C_11  and  C_13
REMARK    4  A    between atoms: C_13  and  C_15
REMARK    5  A    between atoms: C_15  and  C_19
REMARK    6  A    between atoms: C_19  and  C_23
REMARK                            x       y       z     vdW  Elec       q    Type
REMARK                         _______ _______ _______ _____ _____    ______ ____
ROOT
ATOM      1  N   UNL     1      10.945   8.143 -10.604  0.00  0.00    +0.000 NA
ATOM      2  C   UNL     1      12.345   7.751 -10.805  0.00  0.00    +0.000 C 
ATOM      3  C   UNL     1      12.624   7.518 -12.298  0.00  0.00    +0.000 C 
ATOM      4  C   UNL     1      10.034   7.067 -11.029  0.00  0.00    +0.000 C 
ATOM      5  C   UNL     1      11.554   6.702 -12.967  0.00  0.00    +0.000 C 
ATOM      6  C   UNL     1      10.371   6.484 -12.373  0.00  0.00    +0.000 C 
ENDROOT
BRANCH   5   8
ATOM      7  O   UNL     1      12.783   8.062 -15.332  0.00  0.00    +0.000 OA
ATOM      8  N   UNL     1      11.844   6.179 -14.194  0.00  0.00    +0.000 N 
ATOM      9  N   UNL     1      12.548   5.945 -16.349  0.00  0.00    +0.000 N 
ATOM     10  C   UNL     1      11.614   4.851 -14.601  0.00  0.00    +0.000 A 
ATOM     11  C   UNL     1      12.436   6.889 -15.290  0.00  0.00    +0.000 A 
ATOM     12  C   UNL     1      12.048   4.719 -15.918  0.00  0.00    +0.000 A 
ATOM     13  C   UNL     1      11.069   3.782 -13.918  0.00  0.00    +0.000 A 
ATOM     14  C   UNL     1      11.961   3.532 -16.613  0.00  0.00    +0.000 A 
ATOM     15  C   UNL     1      10.969   2.566 -14.602  0.00  0.00    +0.000 A 
ATOM     16  C   UNL     1      11.411   2.442 -15.936  0.00  0.00    +0.000 A 
ATOM     17  H   UNL     1      12.928   6.123 -17.271  0.00  0.00    +0.000 HD
ENDBRANCH   5   8
BRANCH   1  18
ATOM     18  C   UNL     1      10.697   8.512  -9.212  0.00  0.00    +0.000 C 
BRANCH  18  19
ATOM     19  C   UNL     1      11.779   7.919  -8.308  0.00  0.00    +0.000 C 
BRANCH  19  20
ATOM     20  C   UNL     1      11.189   7.121  -7.141  0.00  0.00    +0.000 C 
BRANCH  20  22
ATOM     21  O   UNL     1       9.597   8.679  -6.213  0.00  0.00    +0.000 OA
ATOM     22  C   UNL     1      10.606   7.999  -6.043  0.00  0.00    +0.000 C 
BRANCH  22  24
ATOM     23  F   UNL     1      13.114   8.062  -1.055  0.00  0.00    +0.000 F 
ATOM     24  C   UNL     1      11.274   8.015  -4.711  0.00  0.00    +0.000 A 
ATOM     25  C   UNL     1      11.615   9.229  -4.158  0.00  0.00    +0.000 A 
ATOM     26  C   UNL     1      11.527   6.816  -4.083  0.00  0.00    +0.000 A 
ATOM     27  C   UNL     1      12.243   9.245  -2.912  0.00  0.00    +0.000 A 
ATOM     28  C   UNL     1      12.154   6.831  -2.837  0.00  0.00    +0.000 A 
ATOM     29  C   UNL     1      12.512   8.046  -2.251  0.00  0.00    +0.000 A 
ENDBRANCH  22  24
ENDBRANCH  20  22
ENDBRANCH  19  20
ENDBRANCH  18  19
ENDBRANCH   1  18
TORSDOF 6
ENDMDL
MODEL 5
REMARK VINA RESULT:    -9.766      3.885     10.071
REMARK INTER + INTRA:         -14.012
REMARK INTER:                 -13.255
REMARK INTRA:                  -0.757
REMARK UNBOUND:                -0.821
REMARK  Name = 3168
REMARK  6 active torsions:
REMARK  status: ('A' for Active; 'I' for Inactive)
REMARK    1  A    between atoms: N_4  and  C_11
REMARK    2  A    between atoms: N_5  and  C_10
REMARK    3  A    between atoms: C_11  and  C_13
REMARK    4  A    between atoms: C_13  and  C_15
REMARK    5  A    between atoms: C_15  and  C_19
REMARK    6  A    between atoms: C_19  and  C_23
REMARK                            x       y       z     vdW  Elec       q    Type
REMARK                         _______ _______ _______ _____ _____    ______ ____
ROOT
ATOM      1  N   UNL     1      10.112   6.258  -8.815  0.00  0.00    +0.000 NA
ATOM      2  C   UNL     1      10.762   7.533  -9.142  0.00  0.00    +0.000 C 
ATOM      3  C   UNL     1      11.538   8.062  -7.926  0.00  0.00    +0.000 C 
ATOM      4  C   UNL     1       9.120   6.436  -7.742  0.00  0.00    +0.000 C 
ATOM      5  C   UNL     1      10.747   7.972  -6.651  0.00  0.00    +0.000 C 
ATOM      6  C   UNL     1       9.628   7.237  -6.575  0.00  0.00    +0.000 C 
ENDROOT
BRANCH   5   8
ATOM      7  O   UNL     1      11.118  10.931  -6.398  0.00  0.00    +0.000 OA
ATOM      8  N   UNL     1      11.208   8.685  -5.581  0.00  0.00    +0.000 N 
ATOM      9  N   UNL     1      11.866  10.394  -4.224  0.00  0.00    +0.000 N 
ATOM     10  C   UNL     1      11.612   8.147  -4.344  0.00  0.00    +0.000 A 
ATOM     11  C   UNL     1      11.362  10.109  -5.524  0.00  0.00    +0.000 A 
ATOM     12  C   UNL     1      12.012   9.199  -3.523  0.00  0.00    +0.000 A 
ATOM     13  C   UNL     1      11.652   6.841  -3.900  0.00  0.00    +0.000 A 
ATOM     14  C   UNL     1      12.467   9.006  -2.237  0.00  0.00    +0.000 A 
ATOM     15  C   UNL     1      12.111   6.618  -2.597  0.00  0.00    +0.000 A 
ATOM     16  C   UNL     1      12.514   7.690  -1.774  0.00  0.00    +0.000 A 
ATOM     17  H   UNL     1      12.087  11.311  -3.857  0.00  0.00    +0.000 HD
ENDBRANCH   5   8
BRANCH   1  18
ATOM     18  C   UNL     1       9.492   5.665  -9.999  0.00  0.00    +0.000 C 
BRANCH  18  19
ATOM     19  C   UNL     1       9.737   6.551 -11.223  0.00  0.00    +0.000 C 
BRANCH  19  20
ATOM     20  C   UNL     1       8.544   6.560 -12.182  0.00  0.00    +0.000 C 
BRANCH  20  22
ATOM     21  O   UNL     1       7.155   4.609 -12.481  0.00  0.00    +0.000 OA
ATOM     22  C   UNL     1       8.208   5.185 -12.742  0.00  0.00    +0.000 C 
BRANCH  22  24
ATOM     23  F   UNL     1      11.878   2.723 -16.154  0.00  0.00    +0.000 F 
ATOM     24  C   UNL     1       9.187   4.527 -13.654  0.00  0.00    +0.000 A 
ATOM     25  C   UNL     1      10.054   3.595 -13.130  0.00  0.00    +0.000 A 
ATOM     26  C   UNL     1       9.188   4.876 -14.986  0.00  0.00    +0.000 A 
ATOM     27  C   UNL     1      10.972   2.980 -13.982  0.00  0.00    +0.000 A 
ATOM     28  C   UNL     1      10.106   4.262 -15.838  0.00  0.00    +0.000 A 
ATOM     29  C   UNL     1      10.998   3.313 -15.336  0.00  0.00    +0.000 A 
ENDBRANCH  22  24
ENDBRANCH  20  22
ENDBRANCH  19  20
ENDBRANCH  18  19
ENDBRANCH   1  18
TORSDOF 6
ENDMDL
MODEL 6
REMARK VINA RESULT:    -9.589      2.581      4.111
REMARK INTER + INTRA:         -13.773
REMARK INTER:                 -13.690
REMARK INTRA:                  -0.083
REMARK UNBOUND:                -0.821
REMARK  Name = 3168
REMARK  6 active torsions:
REMARK  status: ('A' for Active; 'I' for Inactive)
REMARK    1  A    between atoms: N_4  and  C_11
REMARK    2  A    between atoms: N_5  and  C_10
REMARK    3  A    between atoms: C_11  and  C_13
REMARK    4  A    between atoms: C_13  and  C_15
REMARK    5  A    between atoms: C_15  and  C_19
REMARK    6  A    between atoms: C_19  and  C_23
REMARK                            x       y       z     vdW  Elec       q    Type
REMARK                         _______ _______ _______ _____ _____    ______ ____
ROOT
ATOM      1  N   UNL     1      10.943   8.193 -10.483  0.00  0.00    +0.000 NA
ATOM      2  C   UNL     1      12.315   7.774 -10.794  0.00  0.00    +0.000 C 
ATOM      3  C   UNL     1      12.440   7.427 -12.286  0.00  0.00    +0.000 C 
ATOM      4  C   UNL     1       9.992   7.096 -10.731  0.00  0.00    +0.000 C 
ATOM      5  C   UNL     1      11.306   6.573 -12.779  0.00  0.00    +0.000 C 
ATOM      6  C   UNL     1      10.189   6.411 -12.055  0.00  0.00    +0.000 C 
ENDROOT
BRANCH   5   8
ATOM      7  O   UNL     1      10.514   3.803 -13.585  0.00  0.00    +0.000 OA
ATOM      8  N   UNL     1      11.469   5.958 -13.987  0.00  0.00    +0.000 N 
ATOM      9  N   UNL     1      11.436   4.419 -15.668  0.00  0.00    +0.000 N 
ATOM     10  C   UNL     1      12.063   6.527 -15.130  0.00  0.00    +0.000 A 
ATOM     11  C   UNL     1      11.065   4.620 -14.309  0.00  0.00    +0.000 A 
ATOM     12  C   UNL     1      12.038   5.579 -16.151  0.00  0.00    +0.000 A 
ATOM     13  C   UNL     1      12.608   7.779 -15.332  0.00  0.00    +0.000 A 
ATOM     14  C   UNL     1      12.546   5.827 -17.407  0.00  0.00    +0.000 A 
ATOM     15  C   UNL     1      13.132   8.055 -16.600  0.00  0.00    +0.000 A 
ATOM     16  C   UNL     1      13.101   7.089 -17.626  0.00  0.00    +0.000 A 
ATOM     17  H   UNL     1      11.291   3.575 -16.208  0.00  0.00    +0.000 HD
ENDBRANCH   5   8
BRANCH   1  18
ATOM     18  C   UNL     1      10.838   8.667  -9.104  0.00  0.00    +0.000 C 
BRANCH  18  19
ATOM     19  C   UNL     1      12.001   8.127  -8.270  0.00  0.00    +0.000 C 
BRANCH  19  20
ATOM     20  C   UNL     1      11.550   7.064  -7.264  0.00  0.00    +0.000 C 
BRANCH  20  22
ATOM     21  O   UNL     1       9.513   7.911  -6.286  0.00  0.00    +0.000 OA
ATOM     22  C   UNL     1      10.698   7.624  -6.134  0.00  0.00    +0.000 C 
BRANCH  22  24
ATOM     23  F   UNL     1      13.032   8.323  -1.111  0.00  0.00    +0.000 F 
ATOM     24  C   UNL     1      11.323   7.811  -4.794  0.00  0.00    +0.000 A 
ATOM     25  C   UNL     1      11.597   6.698  -4.032  0.00  0.00    +0.000 A 
ATOM     26  C   UNL     1      11.601   9.090  -4.366  0.00  0.00    +0.000 A 
ATOM     27  C   UNL     1      12.179   6.872  -2.776  0.00  0.00    +0.000 A 
ATOM     28  C   UNL     1      12.184   9.265  -3.111  0.00  0.00    +0.000 A 
ATOM     29  C   UNL     1      12.473   8.155  -2.316  0.00  0.00    +0.000 A 
ENDBRANCH  22  24
ENDBRANCH  20  22
ENDBRANCH  19  20
ENDBRANCH  18  19
ENDBRANCH   1  18
TORSDOF 6
ENDMDL
MODEL 7
REMARK VINA RESULT:    -9.526      3.811      9.846
REMARK INTER + INTRA:         -13.688
REMARK INTER:                 -13.364
REMARK INTRA:                  -0.324
REMARK UNBOUND:                -0.821
REMARK  Name = 3168
REMARK  6 active torsions:
REMARK  status: ('A' for Active; 'I' for Inactive)
REMARK    1  A    between atoms: N_4  and  C_11
REMARK    2  A    between atoms: N_5  and  C_10
REMARK    3  A    between atoms: C_11  and  C_13
REMARK    4  A    between atoms: C_13  and  C_15
REMARK    5  A    between atoms: C_15  and  C_19
REMARK    6  A    between atoms: C_19  and  C_23
REMARK                            x       y       z     vdW  Elec       q    Type
REMARK                         _______ _______ _______ _____ _____    ______ ____
ROOT
ATOM      1  N   UNL     1       9.918   6.039  -8.791  0.00  0.00    +0.000 NA
ATOM      2  C   UNL     1      10.473   7.338  -9.192  0.00  0.00    +0.000 C 
ATOM      3  C   UNL     1      11.319   7.929  -8.053  0.00  0.00    +0.000 C 
ATOM      4  C   UNL     1       9.010   6.189  -7.642  0.00  0.00    +0.000 C 
ATOM      5  C   UNL     1      10.641   7.826  -6.715  0.00  0.00    +0.000 C 
ATOM      6  C   UNL     1       9.571   7.038  -6.534  0.00  0.00    +0.000 C 
ENDROOT
BRANCH   5   8
ATOM      7  O   UNL     1      11.163  10.772  -6.660  0.00  0.00    +0.000 OA
ATOM      8  N   UNL     1      11.151   8.582  -5.699  0.00  0.00    +0.000 N 
ATOM      9  N   UNL     1      11.913  10.340  -4.464  0.00  0.00    +0.000 N 
ATOM     10  C   UNL     1      11.544   8.106  -4.434  0.00  0.00    +0.000 A 
ATOM     11  C   UNL     1      11.378   9.998  -5.737  0.00  0.00    +0.000 A 
ATOM     12  C   UNL     1      12.008   9.188  -3.687  0.00  0.00    +0.000 A 
ATOM     13  C   UNL     1      11.526   6.831  -3.906  0.00  0.00    +0.000 A 
ATOM     14  C   UNL     1      12.470   9.056  -2.396  0.00  0.00    +0.000 A 
ATOM     15  C   UNL     1      11.990   6.670  -2.596  0.00  0.00    +0.000 A 
ATOM     16  C   UNL     1      12.457   7.771  -1.849  0.00  0.00    +0.000 A 
ATOM     17  H   UNL     1      12.184  11.267  -4.160  0.00  0.00    +0.000 HD
ENDBRANCH   5   8
BRANCH   1  18
ATOM     18  C   UNL     1       9.234   5.393  -9.910  0.00  0.00    +0.000 C 
BRANCH  18  19
ATOM     19  C   UNL     1       9.263   6.299 -11.142  0.00  0.00    +0.000 C 
BRANCH  19  20
ATOM     20  C   UNL     1       8.879   5.552 -12.422  0.00  0.00    +0.000 C 
BRANCH  20  22
ATOM     21  O   UNL     1      10.180   3.574 -12.893  0.00  0.00    +0.000 OA
ATOM     22  C   UNL     1      10.037   4.785 -13.045  0.00  0.00    +0.000 C 
BRANCH  22  24
ATOM     23  F   UNL     1      13.718   7.571 -16.185  0.00  0.00    +0.000 F 
ATOM     24  C   UNL     1      11.018   5.530 -13.883  0.00  0.00    +0.000 A 
ATOM     25  C   UNL     1      11.365   5.012 -15.111  0.00  0.00    +0.000 A 
ATOM     26  C   UNL     1      11.544   6.707 -13.399  0.00  0.00    +0.000 A 
ATOM     27  C   UNL     1      12.285   5.708 -15.896  0.00  0.00    +0.000 A 
ATOM     28  C   UNL     1      12.464   7.403 -14.183  0.00  0.00    +0.000 A 
ATOM     29  C   UNL     1      12.835   6.903 -15.432  0.00  0.00    +0.000 A 
ENDBRANCH  22  24
ENDBRANCH  20  22
ENDBRANCH  19  20
ENDBRANCH  18  19
ENDBRANCH   1  18
TORSDOF 6
ENDMDL
MODEL 8
REMARK VINA RESULT:    -9.447      3.578      9.870
REMARK INTER + INTRA:         -13.581
REMARK INTER:                 -13.610
REMARK INTRA:                   0.029
REMARK UNBOUND:                -0.821
REMARK  Name = 3168
REMARK  6 active torsions:
REMARK  status: ('A' for Active; 'I' for Inactive)
REMARK    1  A    between atoms: N_4  and  C_11
REMARK    2  A    between atoms: N_5  and  C_10
REMARK    3  A    between atoms: C_11  and  C_13
REMARK    4  A    between atoms: C_13  and  C_15
REMARK    5  A    between atoms: C_15  and  C_19
REMARK    6  A    between atoms: C_19  and  C_23
REMARK                            x       y       z     vdW  Elec       q    Type
REMARK                         _______ _______ _______ _____ _____    ______ ____
ROOT
ATOM      1  N   UNL     1      10.679   6.946  -8.854  0.00  0.00    +0.000 NA
ATOM      2  C   UNL     1      11.009   8.374  -8.923  0.00  0.00    +0.000 C 
ATOM      3  C   UNL     1      11.695   8.826  -7.624  0.00  0.00    +0.000 C 
ATOM      4  C   UNL     1       9.719   6.682  -7.770  0.00  0.00    +0.000 C 
ATOM      5  C   UNL     1      11.000   8.314  -6.394  0.00  0.00    +0.000 C 
ATOM      6  C   UNL     1      10.081   7.340  -6.467  0.00  0.00    +0.000 C 
ENDROOT
BRANCH   5   8
ATOM      7  O   UNL     1      10.976  11.215  -5.662  0.00  0.00    +0.000 OA
ATOM      8  N   UNL     1      11.332   8.895  -5.204  0.00  0.00    +0.000 N 
ATOM      9  N   UNL     1      11.722  10.430  -3.565  0.00  0.00    +0.000 N 
ATOM     10  C   UNL     1      11.764   8.218  -4.048  0.00  0.00    +0.000 A 
ATOM     11  C   UNL     1      11.299  10.299  -4.917  0.00  0.00    +0.000 A 
ATOM     12  C   UNL     1      12.000   9.165  -3.053  0.00  0.00    +0.000 A 
ATOM     13  C   UNL     1      11.961   6.872  -3.813  0.00  0.00    +0.000 A 
ATOM     14  C   UNL     1      12.437   8.824  -1.791  0.00  0.00    +0.000 A 
ATOM     15  C   UNL     1      12.405   6.500  -2.539  0.00  0.00    +0.000 A 
ATOM     16  C   UNL     1      12.640   7.466  -1.539  0.00  0.00    +0.000 A 
ATOM     17  H   UNL     1      11.811  11.296  -3.047  0.00  0.00    +0.000 HD
ENDBRANCH   5   8
BRANCH   1  18
ATOM     18  C   UNL     1      10.160   6.464 -10.134  0.00  0.00    +0.000 C 
BRANCH  18  19
ATOM     19  C   UNL     1       9.937   7.638 -11.088  0.00  0.00    +0.000 C 
BRANCH  19  20
ATOM     20  C   UNL     1      10.407   7.327 -12.512  0.00  0.00    +0.000 C 
BRANCH  20  22
ATOM     21  O   UNL     1      10.969   5.124 -13.324  0.00  0.00    +0.000 OA
ATOM     22  C   UNL     1      10.095   5.904 -12.954  0.00  0.00    +0.000 C 
BRANCH  22  24
ATOM     23  F   UNL     1       4.791   4.164 -12.806  0.00  0.00    +0.000 F 
ATOM     24  C   UNL     1       8.679   5.439 -12.916  0.00  0.00    +0.000 A 
ATOM     25  C   UNL     1       7.685   6.366 -12.696  0.00  0.00    +0.000 A 
ATOM     26  C   UNL     1       8.417   4.100 -13.101  0.00  0.00    +0.000 A 
ATOM     27  C   UNL     1       6.360   5.932 -12.658  0.00  0.00    +0.000 A 
ATOM     28  C   UNL     1       7.092   3.665 -13.063  0.00  0.00    +0.000 A 
ATOM     29  C   UNL     1       6.063   4.581 -12.842  0.00  0.00    +0.000 A 
ENDBRANCH  22  24
ENDBRANCH  20  22
ENDBRANCH  19  20
ENDBRANCH  18  19
ENDBRANCH   1  18
TORSDOF 6
ENDMDL
MODEL 9
REMARK VINA RESULT:    -9.362      1.925      2.837
REMARK INTER + INTRA:         -13.467
REMARK INTER:                 -13.195
REMARK INTRA:                  -0.272
REMARK UNBOUND:                -0.821
REMARK  Name = 3168
REMARK  6 active torsions:
REMARK  status: ('A' for Active; 'I' for Inactive)
REMARK    1  A    between atoms: N_4  and  C_11
REMARK    2  A    between atoms: N_5  and  C_10
REMARK    3  A    between atoms: C_11  and  C_13
REMARK    4  A    between atoms: C_13  and  C_15
REMARK    5  A    between atoms: C_15  and  C_19
REMARK    6  A    between atoms: C_19  and  C_23
REMARK                            x       y       z     vdW  Elec       q    Type
REMARK                         _______ _______ _______ _____ _____    ______ ____
ROOT
ATOM      1  N   UNL     1      10.546   7.006  -8.761  0.00  0.00    +0.000 NA
ATOM      2  C   UNL     1       9.442   6.059  -8.565  0.00  0.00    +0.000 C 
ATOM      3  C   UNL     1       9.312   5.133  -9.785  0.00  0.00    +0.000 C 
ATOM      4  C   UNL     1      10.287   7.882  -9.915  0.00  0.00    +0.000 C 
ATOM      5  C   UNL     1       9.389   5.878 -11.088  0.00  0.00    +0.000 C 
ATOM      6  C   UNL     1       9.823   7.146 -11.142  0.00  0.00    +0.000 C 
ENDROOT
BRANCH   5   8
ATOM      7  O   UNL     1       6.621   5.059 -11.873  0.00  0.00    +0.000 OA
ATOM      8  N   UNL     1       8.983   5.214 -12.210  0.00  0.00    +0.000 N 
ATOM      9  N   UNL     1       7.697   4.182 -13.782  0.00  0.00    +0.000 N 
ATOM     10  C   UNL     1       9.818   4.770 -13.253  0.00  0.00    +0.000 A 
ATOM     11  C   UNL     1       7.634   4.849 -12.528  0.00  0.00    +0.000 A 
ATOM     12  C   UNL     1       9.022   4.141 -14.209  0.00  0.00    +0.000 A 
ATOM     13  C   UNL     1      11.184   4.875 -13.420  0.00  0.00    +0.000 A 
ATOM     14  C   UNL     1       9.540   3.592 -15.362  0.00  0.00    +0.000 A 
ATOM     15  C   UNL     1      11.734   4.325 -14.583  0.00  0.00    +0.000 A 
ATOM     16  C   UNL     1      10.920   3.691 -15.544  0.00  0.00    +0.000 A 
ATOM     17  H   UNL     1       6.913   3.794 -14.293  0.00  0.00    +0.000 HD
ENDBRANCH   5   8
BRANCH   1  18
ATOM     18  C   UNL     1      10.781   7.797  -7.553  0.00  0.00    +0.000 C 
BRANCH  18  19
ATOM     19  C   UNL     1      11.294   9.189  -7.925  0.00  0.00    +0.000 C 
BRANCH  19  20
ATOM     20  C   UNL     1      12.153   9.806  -6.818  0.00  0.00    +0.000 C 
BRANCH  20  22
ATOM     21  O   UNL     1      10.589  10.698  -5.209  0.00  0.00    +0.000 OA
ATOM     22  C   UNL     1      11.451   9.861  -5.468  0.00  0.00    +0.000 C 
BRANCH  22  24
ATOM     23  F   UNL     1      12.811   6.075  -1.596  0.00  0.00    +0.000 F 
ATOM     24  C   UNL     1      11.813   8.850  -4.434  0.00  0.00    +0.000 A 
ATOM     25  C   UNL     1      12.543   9.257  -3.340  0.00  0.00    +0.000 A 
ATOM     26  C   UNL     1      11.405   7.547  -4.611  0.00  0.00    +0.000 A 
ATOM     27  C   UNL     1      12.884   8.311  -2.372  0.00  0.00    +0.000 A 
ATOM     28  C   UNL     1      11.745   6.601  -3.644  0.00  0.00    +0.000 A 
ATOM     29  C   UNL     1      12.485   6.983  -2.524  0.00  0.00    +0.000 A 
ENDBRANCH  22  24
ENDBRANCH  20  22
ENDBRANCH  19  20
ENDBRANCH  18  19
ENDBRANCH   1  18
TORSDOF 6
ENDMDL
MODEL 10
REMARK VINA RESULT:    -8.930      1.646      2.852
REMARK INTER + INTRA:         -12.883
REMARK INTER:                 -13.346
REMARK INTRA:                   0.463
REMARK UNBOUND:                -0.821
REMARK  Name = 3168
REMARK  6 active torsions:
REMARK  status: ('A' for Active; 'I' for Inactive)
REMARK    1  A    between atoms: N_4  and  C_11
REMARK    2  A    between atoms: N_5  and  C_10
REMARK    3  A    between atoms: C_11  and  C_13
REMARK    4  A    between atoms: C_13  and  C_15
REMARK    5  A    between atoms: C_15  and  C_19
REMARK    6  A    between atoms: C_19  and  C_23
REMARK                            x       y       z     vdW  Elec       q    Type
REMARK                         _______ _______ _______ _____ _____    ______ ____
ROOT
ATOM      1  N   UNL     1       9.121   5.915 -12.105  0.00  0.00    +0.000 NA
ATOM      2  C   UNL     1       7.774   5.787 -12.675  0.00  0.00    +0.000 C 
ATOM      3  C   UNL     1       7.401   4.304 -12.831  0.00  0.00    +0.000 C 
ATOM      4  C   UNL     1      10.129   5.331 -13.006  0.00  0.00    +0.000 C 
ATOM      5  C   UNL     1       8.510   3.488 -13.434  0.00  0.00    +0.000 C 
ATOM      6  C   UNL     1       9.758   3.969 -13.527  0.00  0.00    +0.000 C 
ENDROOT
BRANCH   5   8
ATOM      7  O   UNL     1      10.286   1.461 -14.734  0.00  0.00    +0.000 OA
ATOM      8  N   UNL     1       8.187   2.245 -13.897  0.00  0.00    +0.000 N 
ATOM      9  N   UNL     1       8.314   0.168 -14.828  0.00  0.00    +0.000 N 
ATOM     10  C   UNL     1       6.910   1.653 -13.852  0.00  0.00    +0.000 A 
ATOM     11  C   UNL     1       9.091   1.318 -14.514  0.00  0.00    +0.000 A 
ATOM     12  C   UNL     1       6.999   0.385 -14.423  0.00  0.00    +0.000 A 
ATOM     13  C   UNL     1       5.713   2.133 -13.360  0.00  0.00    +0.000 A 
ATOM     14  C   UNL     1       5.914  -0.457 -14.531  0.00  0.00    +0.000 A 
ATOM     15  C   UNL     1       4.596   1.296 -13.460  0.00  0.00    +0.000 A 
ATOM     16  C   UNL     1       4.696   0.014 -14.039  0.00  0.00    +0.000 A 
ATOM     17  H   UNL     1       8.650  -0.677 -15.273  0.00  0.00    +0.000 HD
ENDBRANCH   5   8
BRANCH   1  18
ATOM     18  C   UNL     1       9.436   7.312 -11.812  0.00  0.00    +0.000 C 
BRANCH  18  19
ATOM     19  C   UNL     1      10.762   7.407 -11.056  0.00  0.00    +0.000 C 
BRANCH  19  20
ATOM     20  C   UNL     1      10.634   8.204  -9.755  0.00  0.00    +0.000 C 
BRANCH  20  22
ATOM     21  O   UNL     1      10.069   6.174  -8.578  0.00  0.00    +0.000 OA
ATOM     22  C   UNL     1      10.492   7.327  -8.520  0.00  0.00    +0.000 C 
BRANCH  22  24
ATOM     23  F   UNL     1      12.012   9.407  -3.566  0.00  0.00    +0.000 F 
ATOM     24  C   UNL     1      10.900   7.883  -7.198  0.00  0.00    +0.000 A 
ATOM     25  C   UNL     1      10.993   7.028  -6.123  0.00  0.00    +0.000 A 
ATOM     26  C   UNL     1      11.165   9.230  -7.100  0.00  0.00    +0.000 A 
ATOM     27  C   UNL     1      11.372   7.547  -4.884  0.00  0.00    +0.000 A 
ATOM     28  C   UNL     1      11.544   9.750  -5.862  0.00  0.00    +0.000 A 
ATOM     29  C   UNL     1      11.648   8.908  -4.754  0.00  0.00    +0.000 A 
ENDBRANCH  22  24
ENDBRANCH  20  22
ENDBRANCH  19  20
ENDBRANCH  18  19
ENDBRANCH   1  18
TORSDOF 6
ENDMDL
