MODEL 1
REMARK VINA RESULT:    -7.474      0.000      0.000
REMARK INTER + INTRA:         -10.959
REMARK INTER:                  -9.877
REMARK INTRA:                  -1.082
REMARK UNBOUND:                -1.082
REMARK  Name = 3033769
REMARK  8 active torsions:
REMARK  status: ('A' for Active; 'I' for Inactive)
REMARK    1  A    between atoms: O_4  and  C_17
REMARK    2  A    between atoms: O_4  and  C_22
REMARK    3  A    between atoms: O_5  and  C_18
REMARK    4  A    between atoms: N_6  and  C_13
REMARK    5  A    between atoms: N_7  and  C_12
REMARK    6  A    between atoms: C_8  and  C_12
REMARK    7  A    between atoms: C_13  and  C_14
REMARK    8  A    between atoms: C_15  and  C_16
REMARK                            x       y       z     vdW  Elec       q    Type
REMARK                         _______ _______ _______ _____ _____    ______ ____
ROOT
ATOM      1  O   UNL     1       8.822   8.021 -11.986  0.00  0.00    +0.000 OA
ATOM      2  N   UNL     1      10.220   6.658 -10.733  0.00  0.00    +0.000 N 
ATOM      3  C   UNL     1       9.229   6.904 -11.679  0.00  0.00    +0.000 C 
ATOM      4  H   UNL     1      10.491   5.697 -10.542  0.00  0.00    +0.000 HD
ENDROOT
BRANCH   3   7
ATOM      5 CL   UNL     1       9.841   2.632 -14.565  0.00  0.00    +0.000 Cl
ATOM      6 CL   UNL     1       5.018   4.027 -12.653  0.00  0.00    +0.000 Cl
ATOM      7  C   UNL     1       8.626   5.710 -12.327  0.00  0.00    +0.000 A 
ATOM      8  C   UNL     1       9.438   4.856 -13.048  0.00  0.00    +0.000 A 
ATOM      9  C   UNL     1       7.269   5.483 -12.188  0.00  0.00    +0.000 A 
ATOM     10  C   UNL     1       8.874   3.734 -13.654  0.00  0.00    +0.000 A 
ATOM     11  C   UNL     1       6.705   4.361 -12.794  0.00  0.00    +0.000 A 
ATOM     12  C   UNL     1       7.507   3.486 -13.526  0.00  0.00    +0.000 A 
BRANCH   8  13
ATOM     13  O   UNL     1      10.776   5.104 -13.167  0.00  0.00    +0.000 OA
ATOM     14  C   UNL     1      11.202   5.796 -14.338  0.00  0.00    +0.000 C 
ENDBRANCH   8  13
BRANCH   9  15
ATOM     15  O   UNL     1       6.491   6.343 -11.468  0.00  0.00    +0.000 OA
ATOM     16  H   UNL     1       7.017   7.079 -11.119  0.00  0.00    +0.000 HD
ENDBRANCH   9  15
ENDBRANCH   3   7
BRANCH   2  17
ATOM     17  C   UNL     1      10.877   7.704 -10.007  0.00  0.00    +0.000 C 
BRANCH  17  19
ATOM     18  N   UNL     1      10.285   8.609  -7.752  0.00  0.00    +0.000 NA
ATOM     19  C   UNL     1      10.805   7.460  -8.506  0.00  0.00    +0.000 C 
ATOM     20  C   UNL     1       9.812   6.349  -8.156  0.00  0.00    +0.000 C 
ATOM     21  C   UNL     1       9.214   6.752  -6.812  0.00  0.00    +0.000 C 
ATOM     22  C   UNL     1       9.895   8.061  -6.450  0.00  0.00    +0.000 C 
BRANCH  18  23
ATOM     23  C   UNL     1      11.251   9.691  -7.607  0.00  0.00    +0.000 C 
ATOM     24  C   UNL     1      12.092   9.522  -6.359  0.00  0.00    +0.000 C 
ENDBRANCH  18  23
ENDBRANCH  17  19
ENDBRANCH   2  17
TORSDOF 6
ENDMDL
MODEL 2
REMARK VINA RESULT:    -7.317      2.673      4.240
REMARK INTER + INTRA:         -10.752
REMARK INTER:                  -9.418
REMARK INTRA:                  -1.335
REMARK UNBOUND:                -1.082
REMARK  Name = 3033769
REMARK  8 active torsions:
REMARK  status: ('A' for Active; 'I' for Inactive)
REMARK    1  A    between atoms: O_4  and  C_17
REMARK    2  A    between atoms: O_4  and  C_22
REMARK    3  A    between atoms: O_5  and  C_18
REMARK    4  A    between atoms: N_6  and  C_13
REMARK    5  A    between atoms: N_7  and  C_12
REMARK    6  A    between atoms: C_8  and  C_12
REMARK    7  A    between atoms: C_13  and  C_14
REMARK    8  A    between atoms: C_15  and  C_16
REMARK                            x       y       z     vdW  Elec       q    Type
REMARK                         _______ _______ _______ _____ _____    ______ ____
ROOT
ATOM      1  O   UNL     1       9.746   5.960  -8.007  0.00  0.00    +0.000 OA
ATOM      2  N   UNL     1       9.631   8.276  -8.094  0.00  0.00    +0.000 N 
ATOM      3  C   UNL     1       9.871   7.012  -8.628  0.00  0.00    +0.000 C 
ATOM      4  H   UNL     1       9.763   9.092  -8.684  0.00  0.00    +0.000 HD
ENDROOT
BRANCH   3   7
ATOM      5 CL   UNL     1      13.351   8.431 -12.209  0.00  0.00    +0.000 Cl
ATOM      6 CL   UNL     1       9.151   5.334 -13.488  0.00  0.00    +0.000 Cl
ATOM      7  C   UNL     1      10.331   6.971 -10.040  0.00  0.00    +0.000 A 
ATOM      8  C   UNL     1      11.484   7.647 -10.390  0.00  0.00    +0.000 A 
ATOM      9  C   UNL     1       9.595   6.254 -10.966  0.00  0.00    +0.000 A 
ATOM     10  C   UNL     1      11.918   7.607 -11.715  0.00  0.00    +0.000 A 
ATOM     11  C   UNL     1      10.029   6.214 -12.290  0.00  0.00    +0.000 A 
ATOM     12  C   UNL     1      11.190   6.890 -12.666  0.00  0.00    +0.000 A 
BRANCH   8  13
ATOM     13  O   UNL     1      12.191   8.346  -9.455  0.00  0.00    +0.000 OA
ATOM     14  C   UNL     1      13.435   7.788  -9.037  0.00  0.00    +0.000 C 
ENDBRANCH   8  13
BRANCH   9  15
ATOM     15  O   UNL     1       8.461   5.594 -10.591  0.00  0.00    +0.000 OA
ATOM     16  H   UNL     1       8.256   4.877 -11.212  0.00  0.00    +0.000 HD
ENDBRANCH   9  15
ENDBRANCH   3   7
BRANCH   2  17
ATOM     17  C   UNL     1       9.207   8.478  -6.740  0.00  0.00    +0.000 C 
BRANCH  17  19
ATOM     18  N   UNL     1      11.382   7.988  -5.607  0.00  0.00    +0.000 NA
ATOM     19  C   UNL     1      10.350   8.998  -5.879  0.00  0.00    +0.000 C 
ATOM     20  C   UNL     1      11.139  10.104  -6.584  0.00  0.00    +0.000 C 
ATOM     21  C   UNL     1      12.580   9.933  -6.115  0.00  0.00    +0.000 C 
ATOM     22  C   UNL     1      12.550   8.751  -5.162  0.00  0.00    +0.000 C 
BRANCH  18  23
ATOM     23  C   UNL     1      10.978   7.001  -4.612  0.00  0.00    +0.000 C 
ATOM     24  C   UNL     1      11.868   7.050  -3.388  0.00  0.00    +0.000 C 
ENDBRANCH  18  23
ENDBRANCH  17  19
ENDBRANCH   2  17
TORSDOF 6
ENDMDL
MODEL 3
REMARK VINA RESULT:    -7.231      1.024      2.754
REMARK INTER + INTRA:         -10.639
REMARK INTER:                  -9.644
REMARK INTRA:                  -0.994
REMARK UNBOUND:                -1.082
REMARK  Name = 3033769
REMARK  8 active torsions:
REMARK  status: ('A' for Active; 'I' for Inactive)
REMARK    1  A    between atoms: O_4  and  C_17
REMARK    2  A    between atoms: O_4  and  C_22
REMARK    3  A    between atoms: O_5  and  C_18
REMARK    4  A    between atoms: N_6  and  C_13
REMARK    5  A    between atoms: N_7  and  C_12
REMARK    6  A    between atoms: C_8  and  C_12
REMARK    7  A    between atoms: C_13  and  C_14
REMARK    8  A    between atoms: C_15  and  C_16
REMARK                            x       y       z     vdW  Elec       q    Type
REMARK                         _______ _______ _______ _____ _____    ______ ____
ROOT
ATOM      1  O   UNL     1      10.550   6.570 -13.055  0.00  0.00    +0.000 OA
ATOM      2  N   UNL     1       9.774   6.288 -10.887  0.00  0.00    +0.000 N 
ATOM      3  C   UNL     1       9.841   5.981 -12.244  0.00  0.00    +0.000 C 
ATOM      4  H   UNL     1       9.156   5.746 -10.290  0.00  0.00    +0.000 HD
ENDROOT
BRANCH   3   7
ATOM      5 CL   UNL     1       5.086   3.931 -12.601  0.00  0.00    +0.000 Cl
ATOM      6 CL   UNL     1       9.353   1.437 -14.706  0.00  0.00    +0.000 Cl
ATOM      7  C   UNL     1       8.965   4.877 -12.713  0.00  0.00    +0.000 A 
ATOM      8  C   UNL     1       7.610   4.940 -12.453  0.00  0.00    +0.000 A 
ATOM      9  C   UNL     1       9.529   3.818 -13.400  0.00  0.00    +0.000 A 
ATOM     10  C   UNL     1       6.786   3.905 -12.896  0.00  0.00    +0.000 A 
ATOM     11  C   UNL     1       8.705   2.783 -13.842  0.00  0.00    +0.000 A 
ATOM     12  C   UNL     1       7.334   2.826 -13.591  0.00  0.00    +0.000 A 
BRANCH   8  13
ATOM     13  O   UNL     1       7.080   5.999 -11.774  0.00  0.00    +0.000 OA
ATOM     14  C   UNL     1       6.667   7.122 -12.549  0.00  0.00    +0.000 C 
ENDBRANCH   8  13
BRANCH   9  15
ATOM     15  O   UNL     1      10.871   3.783 -13.644  0.00  0.00    +0.000 OA
ATOM     16  H   UNL     1      11.158   2.887 -13.882  0.00  0.00    +0.000 HD
ENDBRANCH   9  15
ENDBRANCH   3   7
BRANCH   2  17
ATOM     17  C   UNL     1      10.540   7.342 -10.291  0.00  0.00    +0.000 C 
BRANCH  17  19
ATOM     18  N   UNL     1      10.254   8.401  -8.043  0.00  0.00    +0.000 NA
ATOM     19  C   UNL     1      10.613   7.181  -8.778  0.00  0.00    +0.000 C 
ATOM     20  C   UNL     1       9.590   6.165  -8.264  0.00  0.00    +0.000 C 
ATOM     21  C   UNL     1       9.167   6.678  -6.891  0.00  0.00    +0.000 C 
ATOM     22  C   UNL     1       9.968   7.951  -6.679  0.00  0.00    +0.000 C 
BRANCH  18  23
ATOM     23  C   UNL     1      11.301   9.417  -8.062  0.00  0.00    +0.000 C 
ATOM     24  C   UNL     1      11.692   9.837  -6.661  0.00  0.00    +0.000 C 
ENDBRANCH  18  23
ENDBRANCH  17  19
ENDBRANCH   2  17
TORSDOF 6
ENDMDL
MODEL 4
REMARK VINA RESULT:    -6.910      3.978      6.112
REMARK INTER + INTRA:         -10.214
REMARK INTER:                  -9.035
REMARK INTRA:                  -1.178
REMARK UNBOUND:                -1.082
REMARK  Name = 3033769
REMARK  8 active torsions:
REMARK  status: ('A' for Active; 'I' for Inactive)
REMARK    1  A    between atoms: O_4  and  C_17
REMARK    2  A    between atoms: O_4  and  C_22
REMARK    3  A    between atoms: O_5  and  C_18
REMARK    4  A    between atoms: N_6  and  C_13
REMARK    5  A    between atoms: N_7  and  C_12
REMARK    6  A    between atoms: C_8  and  C_12
REMARK    7  A    between atoms: C_13  and  C_14
REMARK    8  A    between atoms: C_15  and  C_16
REMARK                            x       y       z     vdW  Elec       q    Type
REMARK                         _______ _______ _______ _____ _____    ______ ____
ROOT
ATOM      1  O   UNL     1      10.872   2.539 -13.781  0.00  0.00    +0.000 OA
ATOM      2  N   UNL     1      10.007   3.785 -15.537  0.00  0.00    +0.000 N 
ATOM      3  C   UNL     1       9.912   2.941 -14.433  0.00  0.00    +0.000 C 
ATOM      4  H   UNL     1       9.156   4.063 -16.017  0.00  0.00    +0.000 HD
ENDROOT
BRANCH   3   7
ATOM      5 CL   UNL     1       5.133   4.158 -12.814  0.00  0.00    +0.000 Cl
ATOM      6 CL   UNL     1       6.509  -0.934 -13.835  0.00  0.00    +0.000 Cl
ATOM      7  C   UNL     1       8.545   2.496 -14.060  0.00  0.00    +0.000 A 
ATOM      8  C   UNL     1       7.617   3.440 -13.663  0.00  0.00    +0.000 A 
ATOM      9  C   UNL     1       8.236   1.150 -14.122  0.00  0.00    +0.000 A 
ATOM     10  C   UNL     1       6.332   3.023 -13.315  0.00  0.00    +0.000 A 
ATOM     11  C   UNL     1       6.951   0.733 -13.774  0.00  0.00    +0.000 A 
ATOM     12  C   UNL     1       5.999   1.669 -13.371  0.00  0.00    +0.000 A 
BRANCH   8  13
ATOM     13  O   UNL     1       7.949   4.763 -13.612  0.00  0.00    +0.000 OA
ATOM     14  C   UNL     1       8.360   5.277 -12.348  0.00  0.00    +0.000 C 
ENDBRANCH   8  13
BRANCH   9  15
ATOM     15  O   UNL     1       9.172   0.239 -14.519  0.00  0.00    +0.000 OA
ATOM     16  H   UNL     1       8.852  -0.667 -14.390  0.00  0.00    +0.000 HD
ENDBRANCH   9  15
ENDBRANCH   3   7
BRANCH   2  17
ATOM     17  C   UNL     1      11.257   4.278 -16.032  0.00  0.00    +0.000 C 
BRANCH  17  19
ATOM     18  N   UNL     1      12.378   6.123 -14.770  0.00  0.00    +0.000 NA
ATOM     19  C   UNL     1      11.388   5.777 -15.799  0.00  0.00    +0.000 C 
ATOM     20  C   UNL     1      11.921   6.502 -17.037  0.00  0.00    +0.000 C 
ATOM     21  C   UNL     1      12.763   7.653 -16.498  0.00  0.00    +0.000 C 
ATOM     22  C   UNL     1      12.668   7.543 -14.986  0.00  0.00    +0.000 C 
BRANCH  18  23
ATOM     23  C   UNL     1      11.911   5.875 -13.411  0.00  0.00    +0.000 C 
ATOM     24  C   UNL     1      11.729   7.167 -12.642  0.00  0.00    +0.000 C 
ENDBRANCH  18  23
ENDBRANCH  17  19
ENDBRANCH   2  17
TORSDOF 6
ENDMDL
MODEL 5
REMARK VINA RESULT:    -6.650      4.699      8.821
REMARK INTER + INTRA:          -9.871
REMARK INTER:                  -9.026
REMARK INTRA:                  -0.845
REMARK UNBOUND:                -1.082
REMARK  Name = 3033769
REMARK  8 active torsions:
REMARK  status: ('A' for Active; 'I' for Inactive)
REMARK    1  A    between atoms: O_4  and  C_17
REMARK    2  A    between atoms: O_4  and  C_22
REMARK    3  A    between atoms: O_5  and  C_18
REMARK    4  A    between atoms: N_6  and  C_13
REMARK    5  A    between atoms: N_7  and  C_12
REMARK    6  A    between atoms: C_8  and  C_12
REMARK    7  A    between atoms: C_13  and  C_14
REMARK    8  A    between atoms: C_15  and  C_16
REMARK                            x       y       z     vdW  Elec       q    Type
REMARK                         _______ _______ _______ _____ _____    ______ ____
ROOT
ATOM      1  O   UNL     1       8.411   1.571 -15.531  0.00  0.00    +0.000 OA
ATOM      2  N   UNL     1       7.162   1.275 -13.598  0.00  0.00    +0.000 N 
ATOM      3  C   UNL     1       8.028   1.973 -14.435  0.00  0.00    +0.000 C 
ATOM      4  H   UNL     1       6.902   1.686 -12.706  0.00  0.00    +0.000 HD
ENDROOT
BRANCH   3   7
ATOM      5 CL   UNL     1       6.983   6.632 -12.399  0.00  0.00    +0.000 Cl
ATOM      6 CL   UNL     1      12.034   5.116 -13.425  0.00  0.00    +0.000 Cl
ATOM      7  C   UNL     1       8.523   3.278 -13.928  0.00  0.00    +0.000 A 
ATOM      8  C   UNL     1       7.612   4.208 -13.467  0.00  0.00    +0.000 A 
ATOM      9  C   UNL     1       9.883   3.527 -13.928  0.00  0.00    +0.000 A 
ATOM     10  C   UNL     1       8.076   5.434 -12.988  0.00  0.00    +0.000 A 
ATOM     11  C   UNL     1      10.347   4.752 -13.450  0.00  0.00    +0.000 A 
ATOM     12  C   UNL     1       9.444   5.705 -12.979  0.00  0.00    +0.000 A 
BRANCH   8  13
ATOM     13  O   UNL     1       6.274   3.935 -13.477  0.00  0.00    +0.000 OA
ATOM     14  C   UNL     1       5.642   3.757 -12.212  0.00  0.00    +0.000 C 
ENDBRANCH   8  13
BRANCH   9  15
ATOM     15  O   UNL     1      10.762   2.589 -14.388  0.00  0.00    +0.000 OA
ATOM     16  H   UNL     1      10.472   2.231 -15.242  0.00  0.00    +0.000 HD
ENDBRANCH   9  15
ENDBRANCH   3   7
BRANCH   2  17
ATOM     17  C   UNL     1       6.620  -0.008 -13.937  0.00  0.00    +0.000 C 
BRANCH  17  19
ATOM     18  N   UNL     1       5.194  -0.915 -15.780  0.00  0.00    +0.000 NA
ATOM     19  C   UNL     1       5.349   0.134 -14.764  0.00  0.00    +0.000 C 
ATOM     20  C   UNL     1       4.091  -0.037 -13.909  0.00  0.00    +0.000 C 
ATOM     21  C   UNL     1       3.069  -0.702 -14.824  0.00  0.00    +0.000 C 
ATOM     22  C   UNL     1       3.779  -0.872 -16.157  0.00  0.00    +0.000 C 
BRANCH  18  23
ATOM     23  C   UNL     1       6.060  -0.730 -16.939  0.00  0.00    +0.000 C 
ATOM     24  C   UNL     1       5.759   0.570 -17.655  0.00  0.00    +0.000 C 
ENDBRANCH  18  23
ENDBRANCH  17  19
ENDBRANCH   2  17
TORSDOF 6
ENDMDL
MODEL 6
REMARK VINA RESULT:    -6.598      4.194      7.546
REMARK INTER + INTRA:          -9.802
REMARK INTER:                  -9.015
REMARK INTRA:                  -0.787
REMARK UNBOUND:                -1.082
REMARK  Name = 3033769
REMARK  8 active torsions:
REMARK  status: ('A' for Active; 'I' for Inactive)
REMARK    1  A    between atoms: O_4  and  C_17
REMARK    2  A    between atoms: O_4  and  C_22
REMARK    3  A    between atoms: O_5  and  C_18
REMARK    4  A    between atoms: N_6  and  C_13
REMARK    5  A    between atoms: N_7  and  C_12
REMARK    6  A    between atoms: C_8  and  C_12
REMARK    7  A    between atoms: C_13  and  C_14
REMARK    8  A    between atoms: C_15  and  C_16
REMARK                            x       y       z     vdW  Elec       q    Type
REMARK                         _______ _______ _______ _____ _____    ______ ____
ROOT
ATOM      1  O   UNL     1      10.904   2.478 -13.566  0.00  0.00    +0.000 OA
ATOM      2  N   UNL     1       8.884   3.300 -14.360  0.00  0.00    +0.000 N 
ATOM      3  C   UNL     1      10.176   3.424 -13.856  0.00  0.00    +0.000 C 
ATOM      4  H   UNL     1       8.355   4.142 -14.569  0.00  0.00    +0.000 HD
ENDROOT
BRANCH   3   7
ATOM      5 CL   UNL     1      10.207   7.731 -10.958  0.00  0.00    +0.000 Cl
ATOM      6 CL   UNL     1      13.106   7.395 -15.468  0.00  0.00    +0.000 Cl
ATOM      7  C   UNL     1      10.670   4.809 -13.643  0.00  0.00    +0.000 A 
ATOM      8  C   UNL     1      10.242   5.510 -12.531  0.00  0.00    +0.000 A 
ATOM      9  C   UNL     1      11.546   5.359 -14.560  0.00  0.00    +0.000 A 
ATOM     10  C   UNL     1      10.706   6.810 -12.329  0.00  0.00    +0.000 A 
ATOM     11  C   UNL     1      12.010   6.659 -14.357  0.00  0.00    +0.000 A 
ATOM     12  C   UNL     1      11.591   7.384 -13.242  0.00  0.00    +0.000 A 
BRANCH   8  13
ATOM     13  O   UNL     1       9.377   4.942 -11.641  0.00  0.00    +0.000 OA
ATOM     14  C   UNL     1       8.072   5.510 -11.555  0.00  0.00    +0.000 C 
ENDBRANCH   8  13
BRANCH   9  15
ATOM     15  O   UNL     1      11.954   4.643 -15.648  0.00  0.00    +0.000 OA
ATOM     16  H   UNL     1      12.668   5.102 -16.117  0.00  0.00    +0.000 HD
ENDBRANCH   9  15
ENDBRANCH   3   7
BRANCH   2  17
ATOM     17  C   UNL     1       8.262   2.031 -14.596  0.00  0.00    +0.000 C 
BRANCH  17  19
ATOM     18  N   UNL     1       6.276   1.024 -13.456  0.00  0.00    +0.000 NA
ATOM     19  C   UNL     1       6.763   2.097 -14.333  0.00  0.00    +0.000 C 
ATOM     20  C   UNL     1       6.375   3.363 -13.565  0.00  0.00    +0.000 C 
ATOM     21  C   UNL     1       5.202   2.953 -12.680  0.00  0.00    +0.000 C 
ATOM     22  C   UNL     1       4.967   1.483 -12.987  0.00  0.00    +0.000 C 
BRANCH  18  23
ATOM     23  C   UNL     1       6.181  -0.269 -14.124  0.00  0.00    +0.000 C 
ATOM     24  C   UNL     1       4.772  -0.539 -14.611  0.00  0.00    +0.000 C 
ENDBRANCH  18  23
ENDBRANCH  17  19
ENDBRANCH   2  17
TORSDOF 6
ENDMDL
MODEL 7
REMARK VINA RESULT:    -6.592      4.260      7.041
REMARK INTER + INTRA:          -9.794
REMARK INTER:                  -8.851
REMARK INTRA:                  -0.943
REMARK UNBOUND:                -1.082
REMARK  Name = 3033769
REMARK  8 active torsions:
REMARK  status: ('A' for Active; 'I' for Inactive)
REMARK    1  A    between atoms: O_4  and  C_17
REMARK    2  A    between atoms: O_4  and  C_22
REMARK    3  A    between atoms: O_5  and  C_18
REMARK    4  A    between atoms: N_6  and  C_13
REMARK    5  A    between atoms: N_7  and  C_12
REMARK    6  A    between atoms: C_8  and  C_12
REMARK    7  A    between atoms: C_13  and  C_14
REMARK    8  A    between atoms: C_15  and  C_16
REMARK                            x       y       z     vdW  Elec       q    Type
REMARK                         _______ _______ _______ _____ _____    ______ ____
ROOT
ATOM      1  O   UNL     1      10.547   2.551 -13.444  0.00  0.00    +0.000 OA
ATOM      2  N   UNL     1       8.774   3.522 -14.584  0.00  0.00    +0.000 N 
ATOM      3  C   UNL     1       9.972   3.547 -13.875  0.00  0.00    +0.000 C 
ATOM      4  H   UNL     1       8.371   4.399 -14.900  0.00  0.00    +0.000 HD
ENDROOT
BRANCH   3   7
ATOM      5 CL   UNL     1      13.135   7.376 -15.389  0.00  0.00    +0.000 Cl
ATOM      6 CL   UNL     1      10.297   7.748 -10.842  0.00  0.00    +0.000 Cl
ATOM      7  C   UNL     1      10.557   4.889 -13.619  0.00  0.00    +0.000 A 
ATOM      8  C   UNL     1      11.458   5.412 -14.527  0.00  0.00    +0.000 A 
ATOM      9  C   UNL     1      10.182   5.580 -12.482  0.00  0.00    +0.000 A 
ATOM     10  C   UNL     1      12.006   6.673 -14.289  0.00  0.00    +0.000 A 
ATOM     11  C   UNL     1      10.730   6.840 -12.245  0.00  0.00    +0.000 A 
ATOM     12  C   UNL     1      11.641   7.387 -13.148  0.00  0.00    +0.000 A 
BRANCH   8  13
ATOM     13  O   UNL     1      11.810   4.708 -15.643  0.00  0.00    +0.000 OA
ATOM     14  C   UNL     1      11.156   5.059 -16.860  0.00  0.00    +0.000 C 
ENDBRANCH   8  13
BRANCH   9  15
ATOM     15  O   UNL     1       9.288   5.040 -11.604  0.00  0.00    +0.000 OA
ATOM     16  H   UNL     1       9.723   4.795 -10.772  0.00  0.00    +0.000 HD
ENDBRANCH   9  15
ENDBRANCH   3   7
BRANCH   2  17
ATOM     17  C   UNL     1       8.077   2.307 -14.887  0.00  0.00    +0.000 C 
BRANCH  17  19
ATOM     18  N   UNL     1       6.493   1.194 -13.304  0.00  0.00    +0.000 NA
ATOM     19  C   UNL     1       6.692   2.296 -14.255  0.00  0.00    +0.000 C 
ATOM     20  C   UNL     1       6.451   3.535 -13.389  0.00  0.00    +0.000 C 
ATOM     21  C   UNL     1       5.560   3.061 -12.246  0.00  0.00    +0.000 C 
ATOM     22  C   UNL     1       5.324   1.584 -12.512  0.00  0.00    +0.000 C 
BRANCH  18  23
ATOM     23  C   UNL     1       6.292  -0.098 -13.951  0.00  0.00    +0.000 C 
ATOM     24  C   UNL     1       4.894  -0.224 -14.518  0.00  0.00    +0.000 C 
ENDBRANCH  18  23
ENDBRANCH  17  19
ENDBRANCH   2  17
TORSDOF 6
ENDMDL
MODEL 8
REMARK VINA RESULT:    -6.591      3.344      6.994
REMARK INTER + INTRA:          -9.792
REMARK INTER:                  -8.873
REMARK INTRA:                  -0.918
REMARK UNBOUND:                -1.082
REMARK  Name = 3033769
REMARK  8 active torsions:
REMARK  status: ('A' for Active; 'I' for Inactive)
REMARK    1  A    between atoms: O_4  and  C_17
REMARK    2  A    between atoms: O_4  and  C_22
REMARK    3  A    between atoms: O_5  and  C_18
REMARK    4  A    between atoms: N_6  and  C_13
REMARK    5  A    between atoms: N_7  and  C_12
REMARK    6  A    between atoms: C_8  and  C_12
REMARK    7  A    between atoms: C_13  and  C_14
REMARK    8  A    between atoms: C_15  and  C_16
REMARK                            x       y       z     vdW  Elec       q    Type
REMARK                         _______ _______ _______ _____ _____    ______ ____
ROOT
ATOM      1  O   UNL     1       7.704   6.426 -11.838  0.00  0.00    +0.000 OA
ATOM      2  N   UNL     1       9.189   4.765 -12.487  0.00  0.00    +0.000 N 
ATOM      3  C   UNL     1       8.817   5.911 -11.789  0.00  0.00    +0.000 C 
ATOM      4  H   UNL     1      10.136   4.413 -12.386  0.00  0.00    +0.000 HD
ENDROOT
BRANCH   3   7
ATOM      5 CL   UNL     1      13.305   8.507 -11.516  0.00  0.00    +0.000 Cl
ATOM      6 CL   UNL     1      10.627   7.112  -7.073  0.00  0.00    +0.000 Cl
ATOM      7  C   UNL     1       9.871   6.544 -10.954  0.00  0.00    +0.000 A 
ATOM      8  C   UNL     1      10.949   7.145 -11.576  0.00  0.00    +0.000 A 
ATOM      9  C   UNL     1       9.745   6.517  -9.578  0.00  0.00    +0.000 A 
ATOM     10  C   UNL     1      11.938   7.741 -10.794  0.00  0.00    +0.000 A 
ATOM     11  C   UNL     1      10.733   7.114  -8.795  0.00  0.00    +0.000 A 
ATOM     12  C   UNL     1      11.830   7.726  -9.403  0.00  0.00    +0.000 A 
BRANCH   8  13
ATOM     13  O   UNL     1      11.048   7.157 -12.938  0.00  0.00    +0.000 OA
ATOM     14  C   UNL     1      12.016   6.290 -13.523  0.00  0.00    +0.000 C 
ENDBRANCH   8  13
BRANCH   9  15
ATOM     15  O   UNL     1       8.668   5.918  -8.990  0.00  0.00    +0.000 OA
ATOM     16  H   UNL     1       7.857   6.425  -9.153  0.00  0.00    +0.000 HD
ENDBRANCH   9  15
ENDBRANCH   3   7
BRANCH   2  17
ATOM     17  C   UNL     1       8.291   4.058 -13.351  0.00  0.00    +0.000 C 
BRANCH  17  19
ATOM     18  N   UNL     1       8.243   2.159 -14.979  0.00  0.00    +0.000 NA
ATOM     19  C   UNL     1       8.879   2.720 -13.779  0.00  0.00    +0.000 C 
ATOM     20  C   UNL     1      10.344   2.852 -14.205  0.00  0.00    +0.000 C 
ATOM     21  C   UNL     1      10.535   1.824 -15.315  0.00  0.00    +0.000 C 
ATOM     22  C   UNL     1       9.183   1.148 -15.468  0.00  0.00    +0.000 C 
BRANCH  18  23
ATOM     23  C   UNL     1       6.928   1.586 -14.721  0.00  0.00    +0.000 C 
ATOM     24  C   UNL     1       7.030   0.287 -13.948  0.00  0.00    +0.000 C 
ENDBRANCH  18  23
ENDBRANCH  17  19
ENDBRANCH   2  17
TORSDOF 6
ENDMDL
MODEL 9
REMARK VINA RESULT:    -6.568      1.531      3.176
REMARK INTER + INTRA:          -9.762
REMARK INTER:                  -9.188
REMARK INTRA:                  -0.574
REMARK UNBOUND:                -1.082
REMARK  Name = 3033769
REMARK  8 active torsions:
REMARK  status: ('A' for Active; 'I' for Inactive)
REMARK    1  A    between atoms: O_4  and  C_17
REMARK    2  A    between atoms: O_4  and  C_22
REMARK    3  A    between atoms: O_5  and  C_18
REMARK    4  A    between atoms: N_6  and  C_13
REMARK    5  A    between atoms: N_7  and  C_12
REMARK    6  A    between atoms: C_8  and  C_12
REMARK    7  A    between atoms: C_13  and  C_14
REMARK    8  A    between atoms: C_15  and  C_16
REMARK                            x       y       z     vdW  Elec       q    Type
REMARK                         _______ _______ _______ _____ _____    ______ ____
ROOT
ATOM      1  O   UNL     1       9.410   8.175 -11.815  0.00  0.00    +0.000 OA
ATOM      2  N   UNL     1      11.361   7.530 -10.738  0.00  0.00    +0.000 N 
ATOM      3  C   UNL     1      10.385   7.434 -11.726  0.00  0.00    +0.000 C 
ATOM      4  H   UNL     1      12.133   6.870 -10.744  0.00  0.00    +0.000 HD
ENDROOT
BRANCH   3   7
ATOM      5 CL   UNL     1       8.724   2.909 -13.654  0.00  0.00    +0.000 Cl
ATOM      6 CL   UNL     1      13.028   5.390 -15.700  0.00  0.00    +0.000 Cl
ATOM      7  C   UNL     1      10.551   6.335 -12.712  0.00  0.00    +0.000 A 
ATOM      8  C   UNL     1       9.657   5.281 -12.698  0.00  0.00    +0.000 A 
ATOM      9  C   UNL     1      11.593   6.397 -13.618  0.00  0.00    +0.000 A 
ATOM     10  C   UNL     1       9.811   4.249 -13.624  0.00  0.00    +0.000 A 
ATOM     11  C   UNL     1      11.746   5.365 -14.544  0.00  0.00    +0.000 A 
ATOM     12  C   UNL     1      10.856   4.291 -14.548  0.00  0.00    +0.000 A 
BRANCH   8  13
ATOM     13  O   UNL     1       8.636   5.247 -11.792  0.00  0.00    +0.000 OA
ATOM     14  C   UNL     1       7.334   5.568 -12.275  0.00  0.00    +0.000 C 
ENDBRANCH   8  13
BRANCH   9  15
ATOM     15  O   UNL     1      12.460   7.451 -13.611  0.00  0.00    +0.000 OA
ATOM     16  H   UNL     1      12.216   8.096 -12.928  0.00  0.00    +0.000 HD
ENDBRANCH   9  15
ENDBRANCH   3   7
BRANCH   2  17
ATOM     17  C   UNL     1      11.325   8.522  -9.705  0.00  0.00    +0.000 C 
BRANCH  17  19
ATOM     18  N   UNL     1      10.427   8.776  -7.384  0.00  0.00    +0.000 NA
ATOM     19  C   UNL     1      11.101   7.886  -8.340  0.00  0.00    +0.000 C 
ATOM     20  C   UNL     1      10.147   6.692  -8.418  0.00  0.00    +0.000 C 
ATOM     21  C   UNL     1       9.377   6.704  -7.101  0.00  0.00    +0.000 C 
ATOM     22  C   UNL     1       9.928   7.891  -6.330  0.00  0.00    +0.000 C 
BRANCH  18  23
ATOM     23  C   UNL     1      11.301   9.811  -6.844  0.00  0.00    +0.000 C 
ATOM     24  C   UNL     1      11.747   9.480  -5.435  0.00  0.00    +0.000 C 
ENDBRANCH  18  23
ENDBRANCH  17  19
ENDBRANCH   2  17
TORSDOF 6
ENDMDL
MODEL 10
REMARK VINA RESULT:    -6.518      4.405      6.408
REMARK INTER + INTRA:          -9.696
REMARK INTER:                  -8.921
REMARK INTRA:                  -0.775
REMARK UNBOUND:                -1.082
REMARK  Name = 3033769
REMARK  8 active torsions:
REMARK  status: ('A' for Active; 'I' for Inactive)
REMARK    1  A    between atoms: O_4  and  C_17
REMARK    2  A    between atoms: O_4  and  C_22
REMARK    3  A    between atoms: O_5  and  C_18
REMARK    4  A    between atoms: N_6  and  C_13
REMARK    5  A    between atoms: N_7  and  C_12
REMARK    6  A    between atoms: C_8  and  C_12
REMARK    7  A    between atoms: C_13  and  C_14
REMARK    8  A    between atoms: C_15  and  C_16
REMARK                            x       y       z     vdW  Elec       q    Type
REMARK                         _______ _______ _______ _____ _____    ______ ____
ROOT
ATOM      1  O   UNL     1       8.895   0.534 -14.181  0.00  0.00    +0.000 OA
ATOM      2  N   UNL     1       7.759   2.498 -14.670  0.00  0.00    +0.000 N 
ATOM      3  C   UNL     1       7.905   1.113 -14.620  0.00  0.00    +0.000 C 
ATOM      4  H   UNL     1       6.903   2.888 -15.054  0.00  0.00    +0.000 HD
ENDROOT
BRANCH   3   7
ATOM      5 CL   UNL     1       6.076  -2.051 -18.306  0.00  0.00    +0.000 Cl
ATOM      6 CL   UNL     1       2.998  -0.524 -14.176  0.00  0.00    +0.000 Cl
ATOM      7  C   UNL     1       6.777   0.313 -15.163  0.00  0.00    +0.000 A 
ATOM      8  C   UNL     1       6.961  -0.394 -16.336  0.00  0.00    +0.000 A 
ATOM      9  C   UNL     1       5.576   0.293 -14.479  0.00  0.00    +0.000 A 
ATOM     10  C   UNL     1       5.904  -1.148 -16.846  0.00  0.00    +0.000 A 
ATOM     11  C   UNL     1       4.520  -0.462 -14.989  0.00  0.00    +0.000 A 
ATOM     12  C   UNL     1       4.683  -1.182 -16.172  0.00  0.00    +0.000 A 
BRANCH   8  13
ATOM     13  O   UNL     1       8.159  -0.357 -16.991  0.00  0.00    +0.000 OA
ATOM     14  C   UNL     1       8.290   0.594 -18.044  0.00  0.00    +0.000 C 
ENDBRANCH   8  13
BRANCH   9  15
ATOM     15  O   UNL     1       5.424   0.999 -13.321  0.00  0.00    +0.000 OA
ATOM     16  H   UNL     1       4.499   0.990 -13.028  0.00  0.00    +0.000 HD
ENDBRANCH   9  15
ENDBRANCH   3   7
BRANCH   2  17
ATOM     17  C   UNL     1       8.769   3.402 -14.208  0.00  0.00    +0.000 C 
BRANCH  17  19
ATOM     18  N   UNL     1       8.667   5.618 -13.052  0.00  0.00    +0.000 NA
ATOM     19  C   UNL     1       8.283   4.200 -13.005  0.00  0.00    +0.000 C 
ATOM     20  C   UNL     1       6.756   4.267 -12.946  0.00  0.00    +0.000 C 
ATOM     21  C   UNL     1       6.434   5.634 -12.351  0.00  0.00    +0.000 C 
ATOM     22  C   UNL     1       7.784   6.281 -12.090  0.00  0.00    +0.000 C 
BRANCH  18  23
ATOM     23  C   UNL     1      10.072   5.847 -12.734  0.00  0.00    +0.000 C 
ATOM     24  C   UNL     1      10.263   7.137 -11.964  0.00  0.00    +0.000 C 
ENDBRANCH  18  23
ENDBRANCH  17  19
ENDBRANCH   2  17
TORSDOF 6
ENDMDL
