REMARK  Name = 3033769
REMARK  8 active torsions:
REMARK  status: ('A' for Active; 'I' for Inactive)
REMARK    1  A    between atoms: O_4  and  C_17
REMARK    2  A    between atoms: O_4  and  C_22
REMARK    3  A    between atoms: O_5  and  C_18
REMARK    4  A    between atoms: N_6  and  C_13
REMARK    5  A    between atoms: N_7  and  C_12
REMARK    6  A    between atoms: C_8  and  C_12
REMARK    7  A    between atoms: C_13  and  C_14
REMARK    8  A    between atoms: C_15  and  C_16
REMARK                            x       y       z     vdW  Elec       q    Type
REMARK                         _______ _______ _______ _____ _____    ______ ____
ROOT
ATOM      1  O   UNL     1      -0.003  -0.991  -1.628  0.00  0.00    +0.000 OA
ATOM      2  N   UNL     1      -0.534  -0.803   0.623  0.00  0.00    +0.000 N 
ATOM      3  C   UNL     1       0.324  -0.737  -0.472  0.00  0.00    +0.000 C 
ATOM      4  H   UNL     1      -0.173  -0.577   1.545  0.00  0.00    +0.000 HD
ENDROOT
BRANCH   3   7
ATOM      5 CL   UNL     1       3.888   3.000   0.057  0.00  0.00    +0.000 Cl
ATOM      6 CL   UNL     1       5.164  -2.174   0.737  0.00  0.00    +0.000 Cl
ATOM      7  C   UNL     1       1.730  -0.353  -0.184  0.00  0.00    +0.000 A 
ATOM      8  C   UNL     1       2.078   0.984  -0.205  0.00  0.00    +0.000 A 
ATOM      9  C   UNL     1       2.652  -1.343   0.101  0.00  0.00    +0.000 A 
ATOM     10  C   UNL     1       3.397   1.346   0.068  0.00  0.00    +0.000 A 
ATOM     11  C   UNL     1       3.971  -0.981   0.374  0.00  0.00    +0.000 A 
ATOM     12  C   UNL     1       4.344   0.363   0.358  0.00  0.00    +0.000 A 
BRANCH   8  13
ATOM     13  O   UNL     1       1.146   1.941  -0.488  0.00  0.00    +0.000 OA
ATOM     14  C   UNL     1       0.986   2.301  -1.858  0.00  0.00    +0.000 C 
ENDBRANCH   8  13
BRANCH   9  15
ATOM     15  O   UNL     1       2.280  -2.656   0.117  0.00  0.00    +0.000 OA
ATOM     16  H   UNL     1       1.336  -2.752  -0.085  0.00  0.00    +0.000 HD
ENDBRANCH   9  15
ENDBRANCH   3   7
BRANCH   2  17
ATOM     17  C   UNL     1      -1.911  -1.182   0.508  0.00  0.00    +0.000 C 
BRANCH  17  19
ATOM     18  N   UNL     1      -4.231  -0.286   0.241  0.00  0.00    +0.000 NA
ATOM     19  C   UNL     1      -2.797   0.033   0.267  0.00  0.00    +0.000 C 
ATOM     20  C   UNL     1      -2.698   1.046   1.410  0.00  0.00    +0.000 C 
ATOM     21  C   UNL     1      -4.085   1.671   1.516  0.00  0.00    +0.000 C 
ATOM     22  C   UNL     1      -4.908   0.999   0.430  0.00  0.00    +0.000 C 
BRANCH  18  23
ATOM     23  C   UNL     1      -4.656  -0.937  -0.993  0.00  0.00    +0.000 C 
ATOM     24  C   UNL     1      -6.140  -1.240  -0.978  0.00  0.00    +0.000 C 
ENDBRANCH  18  23
ENDBRANCH  17  19
ENDBRANCH   2  17
TORSDOF 6
