MODEL 1
REMARK VINA RESULT:   -12.047      0.000      0.000
REMARK INTER + INTRA:         -15.054
REMARK INTER:                 -14.865
REMARK INTRA:                  -0.190
REMARK UNBOUND:                -0.190
REMARK  Name = 5073
REMARK  5 active torsions:
REMARK  status: ('A' for Active; 'I' for Inactive)
REMARK    1  A    between atoms: N_4  and  C_13
REMARK    2  A    between atoms: C_8  and  C_14
REMARK    3  A    between atoms: C_13  and  C_15
REMARK    4  A    between atoms: C_15  and  C_16
REMARK    5  A    between atoms: C_24  and  C_27
REMARK                            x       y       z     vdW  Elec       q    Type
REMARK                         _______ _______ _______ _____ _____    ______ ____
ROOT
ATOM      1  N   UNL     1      10.001   7.069 -10.602  0.00  0.00    +0.000 NA
ATOM      2  C   UNL     1      11.198   7.773  -8.016  0.00  0.00    +0.000 C 
ATOM      3  C   UNL     1      11.443   8.597  -9.291  0.00  0.00    +0.000 C 
ATOM      4  C   UNL     1       9.862   7.020  -8.131  0.00  0.00    +0.000 C 
ATOM      5  C   UNL     1      11.314   7.730 -10.546  0.00  0.00    +0.000 C 
ATOM      6  C   UNL     1       9.790   6.211  -9.428  0.00  0.00    +0.000 C 
ENDROOT
BRANCH   2  10
ATOM      7  F   UNL     1      12.052   8.117  -1.355  0.00  0.00    +0.000 F 
ATOM      8  O   UNL     1      11.308  10.380  -5.533  0.00  0.00    +0.000 OA
ATOM      9  N   UNL     1      11.174   9.928  -6.839  0.00  0.00    +0.000 NA
ATOM     10  C   UNL     1      11.295   8.604  -6.757  0.00  0.00    +0.000 A 
ATOM     11  C   UNL     1      11.506   8.151  -5.447  0.00  0.00    +0.000 A 
ATOM     12  C   UNL     1      11.507   9.320  -4.704  0.00  0.00    +0.000 A 
ATOM     13  C   UNL     1      11.695   6.927  -4.790  0.00  0.00    +0.000 A 
ATOM     14  C   UNL     1      11.686   9.372  -3.325  0.00  0.00    +0.000 A 
ATOM     15  C   UNL     1      11.878   6.942  -3.400  0.00  0.00    +0.000 A 
ATOM     16  C   UNL     1      11.874   8.143  -2.683  0.00  0.00    +0.000 A 
ENDBRANCH   2  10
BRANCH   1  17
ATOM     17  C   UNL     1       9.873   6.292 -11.834  0.00  0.00    +0.000 C 
BRANCH  17  18
ATOM     18  C   UNL     1       8.439   6.361 -12.341  0.00  0.00    +0.000 C 
BRANCH  18  22
ATOM     19  O   UNL     1       6.176   4.952 -11.543  0.00  0.00    +0.000 OA
ATOM     20  N   UNL     1       6.444   3.222 -13.079  0.00  0.00    +0.000 N 
ATOM     21  N   UNL     1       8.320   3.231 -14.521  0.00  0.00    +0.000 NA
ATOM     22  C   UNL     1       8.041   5.069 -12.995  0.00  0.00    +0.000 A 
ATOM     23  C   UNL     1       5.282   2.515 -12.529  0.00  0.00    +0.000 C 
ATOM     24  C   UNL     1       4.715   1.431 -13.428  0.00  0.00    +0.000 C 
ATOM     25  C   UNL     1       7.240   2.676 -14.070  0.00  0.00    +0.000 A 
ATOM     26  C   UNL     1       5.845   0.547 -13.912  0.00  0.00    +0.000 C 
ATOM     27  C   UNL     1       6.806   1.382 -14.733  0.00  0.00    +0.000 C 
ATOM     28  C   UNL     1       6.799   4.425 -12.464  0.00  0.00    +0.000 A 
ATOM     29  C   UNL     1       8.708   4.432 -13.977  0.00  0.00    +0.000 A 
ATOM     30  C   UNL     1       9.953   4.989 -14.616  0.00  0.00    +0.000 C 
ENDBRANCH  18  22
ENDBRANCH  17  18
ENDBRANCH   1  17
TORSDOF 4
ENDMDL
MODEL 2
REMARK VINA RESULT:   -11.912      2.031      2.756
REMARK INTER + INTRA:         -14.887
REMARK INTER:                 -14.388
REMARK INTRA:                  -0.500
REMARK UNBOUND:                -0.190
REMARK  Name = 5073
REMARK  5 active torsions:
REMARK  status: ('A' for Active; 'I' for Inactive)
REMARK    1  A    between atoms: N_4  and  C_13
REMARK    2  A    between atoms: C_8  and  C_14
REMARK    3  A    between atoms: C_13  and  C_15
REMARK    4  A    between atoms: C_15  and  C_16
REMARK    5  A    between atoms: C_24  and  C_27
REMARK                            x       y       z     vdW  Elec       q    Type
REMARK                         _______ _______ _______ _____ _____    ______ ____
ROOT
ATOM      1  N   UNL     1       9.330   6.440  -9.914  0.00  0.00    +0.000 NA
ATOM      2  C   UNL     1      10.893   7.450  -7.645  0.00  0.00    +0.000 C 
ATOM      3  C   UNL     1      10.817   8.190  -8.991  0.00  0.00    +0.000 C 
ATOM      4  C   UNL     1       9.645   6.572  -7.462  0.00  0.00    +0.000 C 
ATOM      5  C   UNL     1      10.554   7.220 -10.145  0.00  0.00    +0.000 C 
ATOM      6  C   UNL     1       9.424   5.660  -8.672  0.00  0.00    +0.000 C 
ENDROOT
BRANCH   2  10
ATOM      7  F   UNL     1      12.381   8.335  -1.148  0.00  0.00    +0.000 F 
ATOM      8  O   UNL     1      11.301  10.255  -5.423  0.00  0.00    +0.000 OA
ATOM      9  N   UNL     1      11.033   9.697  -6.666  0.00  0.00    +0.000 NA
ATOM     10  C   UNL     1      11.129   8.382  -6.479  0.00  0.00    +0.000 A 
ATOM     11  C   UNL     1      11.451   8.036  -5.159  0.00  0.00    +0.000 A 
ATOM     12  C   UNL     1      11.551   9.263  -4.525  0.00  0.00    +0.000 A 
ATOM     13  C   UNL     1      11.672   6.867  -4.416  0.00  0.00    +0.000 A 
ATOM     14  C   UNL     1      11.861   9.428  -3.178  0.00  0.00    +0.000 A 
ATOM     15  C   UNL     1      11.986   6.995  -3.056  0.00  0.00    +0.000 A 
ATOM     16  C   UNL     1      12.078   8.252  -2.450  0.00  0.00    +0.000 A 
ENDBRANCH   2  10
BRANCH   1  17
ATOM     17  C   UNL     1       9.062   5.560 -11.051  0.00  0.00    +0.000 C 
BRANCH  17  18
ATOM     18  C   UNL     1       9.167   6.347 -12.350  0.00  0.00    +0.000 C 
BRANCH  18  22
ATOM     19  O   UNL     1       7.973   4.221 -13.692  0.00  0.00    +0.000 OA
ATOM     20  N   UNL     1       9.833   3.720 -15.001  0.00  0.00    +0.000 N 
ATOM     21  N   UNL     1      11.822   4.969 -14.717  0.00  0.00    +0.000 NA
ATOM     22  C   UNL     1       9.902   5.559 -13.394  0.00  0.00    +0.000 A 
ATOM     23  C   UNL     1       9.144   2.567 -15.590  0.00  0.00    +0.000 C 
ATOM     24  C   UNL     1       9.770   2.036 -16.866  0.00  0.00    +0.000 C 
ATOM     25  C   UNL     1      11.156   4.011 -15.280  0.00  0.00    +0.000 A 
ATOM     26  C   UNL     1      11.260   1.865 -16.653  0.00  0.00    +0.000 C 
ATOM     27  C   UNL     1      11.874   3.217 -16.356  0.00  0.00    +0.000 C 
ATOM     28  C   UNL     1       9.133   4.447 -14.035  0.00  0.00    +0.000 A 
ATOM     29  C   UNL     1      11.181   5.740 -13.778  0.00  0.00    +0.000 A 
ATOM     30  C   UNL     1      12.052   6.841 -13.231  0.00  0.00    +0.000 C 
ENDBRANCH  18  22
ENDBRANCH  17  18
ENDBRANCH   1  17
TORSDOF 4
ENDMDL
MODEL 3
REMARK VINA RESULT:   -11.484      1.825      2.954
REMARK INTER + INTRA:         -14.360
REMARK INTER:                 -13.767
REMARK INTRA:                  -0.593
REMARK UNBOUND:                -0.190
REMARK  Name = 5073
REMARK  5 active torsions:
REMARK  status: ('A' for Active; 'I' for Inactive)
REMARK    1  A    between atoms: N_4  and  C_13
REMARK    2  A    between atoms: C_8  and  C_14
REMARK    3  A    between atoms: C_13  and  C_15
REMARK    4  A    between atoms: C_15  and  C_16
REMARK    5  A    between atoms: C_24  and  C_27
REMARK                            x       y       z     vdW  Elec       q    Type
REMARK                         _______ _______ _______ _____ _____    ______ ____
ROOT
ATOM      1  N   UNL     1       8.947   6.068  -9.826  0.00  0.00    +0.000 NA
ATOM      2  C   UNL     1      10.625   7.204  -7.703  0.00  0.00    +0.000 C 
ATOM      3  C   UNL     1      10.534   7.826  -9.107  0.00  0.00    +0.000 C 
ATOM      4  C   UNL     1       9.348   6.401  -7.406  0.00  0.00    +0.000 C 
ATOM      5  C   UNL     1      10.194   6.770 -10.162  0.00  0.00    +0.000 C 
ATOM      6  C   UNL     1       9.051   5.397  -8.523  0.00  0.00    +0.000 C 
ENDROOT
BRANCH   2  10
ATOM      7  F   UNL     1      12.454   8.592  -1.383  0.00  0.00    +0.000 F 
ATOM      8  O   UNL     1      11.196  10.175  -5.747  0.00  0.00    +0.000 OA
ATOM      9  N   UNL     1      10.856   9.522  -6.924  0.00  0.00    +0.000 NA
ATOM     10  C   UNL     1      10.936   8.225  -6.632  0.00  0.00    +0.000 A 
ATOM     11  C   UNL     1      11.318   7.983  -5.305  0.00  0.00    +0.000 A 
ATOM     12  C   UNL     1      11.472   9.256  -4.782  0.00  0.00    +0.000 A 
ATOM     13  C   UNL     1      11.554   6.874  -4.479  0.00  0.00    +0.000 A 
ATOM     14  C   UNL     1      11.853   9.524  -3.471  0.00  0.00    +0.000 A 
ATOM     15  C   UNL     1      11.938   7.108  -3.150  0.00  0.00    +0.000 A 
ATOM     16  C   UNL     1      12.084   8.409  -2.658  0.00  0.00    +0.000 A 
ENDBRANCH   2  10
BRANCH   1  17
ATOM     17  C   UNL     1       8.607   5.103 -10.872  0.00  0.00    +0.000 C 
BRANCH  17  18
ATOM     18  C   UNL     1       8.645   5.782 -12.234  0.00  0.00    +0.000 C 
BRANCH  18  22
ATOM     19  O   UNL     1      11.056   5.496 -13.595  0.00  0.00    +0.000 OA
ATOM     20  N   UNL     1      10.314   3.787 -14.992  0.00  0.00    +0.000 N 
ATOM     21  N   UNL     1       8.070   3.051 -14.836  0.00  0.00    +0.000 NA
ATOM     22  C   UNL     1       8.818   4.772 -13.330  0.00  0.00    +0.000 A 
ATOM     23  C   UNL     1      11.597   3.772 -15.704  0.00  0.00    +0.000 C 
ATOM     24  C   UNL     1      11.848   2.527 -16.535  0.00  0.00    +0.000 C 
ATOM     25  C   UNL     1       9.242   3.005 -15.386  0.00  0.00    +0.000 A 
ATOM     26  C   UNL     1      10.628   2.246 -17.387  0.00  0.00    +0.000 C 
ATOM     27  C   UNL     1       9.446   1.974 -16.480  0.00  0.00    +0.000 C 
ATOM     28  C   UNL     1      10.170   4.728 -13.970  0.00  0.00    +0.000 A 
ATOM     29  C   UNL     1       7.872   3.938 -13.804  0.00  0.00    +0.000 A 
ATOM     30  C   UNL     1       6.483   3.864 -13.228  0.00  0.00    +0.000 C 
ENDBRANCH  18  22
ENDBRANCH  17  18
ENDBRANCH   1  17
TORSDOF 4
ENDMDL
MODEL 4
REMARK VINA RESULT:   -11.395      1.453      2.305
REMARK INTER + INTRA:         -14.250
REMARK INTER:                 -13.827
REMARK INTRA:                  -0.423
REMARK UNBOUND:                -0.190
REMARK  Name = 5073
REMARK  5 active torsions:
REMARK  status: ('A' for Active; 'I' for Inactive)
REMARK    1  A    between atoms: N_4  and  C_13
REMARK    2  A    between atoms: C_8  and  C_14
REMARK    3  A    between atoms: C_13  and  C_15
REMARK    4  A    between atoms: C_15  and  C_16
REMARK    5  A    between atoms: C_24  and  C_27
REMARK                            x       y       z     vdW  Elec       q    Type
REMARK                         _______ _______ _______ _____ _____    ______ ____
ROOT
ATOM      1  N   UNL     1       9.303   5.941 -10.168  0.00  0.00    +0.000 NA
ATOM      2  C   UNL     1      10.739   7.203  -7.942  0.00  0.00    +0.000 C 
ATOM      3  C   UNL     1      10.667   7.834  -9.342  0.00  0.00    +0.000 C 
ATOM      4  C   UNL     1       9.532   6.275  -7.726  0.00  0.00    +0.000 C 
ATOM      5  C   UNL     1      10.492   6.766 -10.424  0.00  0.00    +0.000 C 
ATOM      6  C   UNL     1       9.398   5.264  -8.867  0.00  0.00    +0.000 C 
ENDROOT
BRANCH   2  10
ATOM      7  F   UNL     1      12.190   8.680  -1.544  0.00  0.00    +0.000 F 
ATOM      8  O   UNL     1      10.877  10.182  -5.920  0.00  0.00    +0.000 OA
ATOM      9  N   UNL     1      10.656   9.515  -7.118  0.00  0.00    +0.000 NA
ATOM     10  C   UNL     1      10.888   8.232  -6.845  0.00  0.00    +0.000 A 
ATOM     11  C   UNL     1      11.257   8.013  -5.510  0.00  0.00    +0.000 A 
ATOM     12  C   UNL     1      11.236   9.285  -4.962  0.00  0.00    +0.000 A 
ATOM     13  C   UNL     1      11.605   6.926  -4.694  0.00  0.00    +0.000 A 
ATOM     14  C   UNL     1      11.540   9.572  -3.634  0.00  0.00    +0.000 A 
ATOM     15  C   UNL     1      11.916   7.179  -3.350  0.00  0.00    +0.000 A 
ATOM     16  C   UNL     1      11.885   8.478  -2.833  0.00  0.00    +0.000 A 
ENDBRANCH   2  10
BRANCH   1  17
ATOM     17  C   UNL     1       9.118   4.964 -11.241  0.00  0.00    +0.000 C 
BRANCH  17  18
ATOM     18  C   UNL     1       8.029   5.440 -12.191  0.00  0.00    +0.000 C 
BRANCH  18  22
ATOM     19  O   UNL     1       9.638   4.611 -14.305  0.00  0.00    +0.000 OA
ATOM     20  N   UNL     1       8.170   2.970 -15.065  0.00  0.00    +0.000 N 
ATOM     21  N   UNL     1       6.091   2.678 -13.974  0.00  0.00    +0.000 NA
ATOM     22  C   UNL     1       7.609   4.337 -13.118  0.00  0.00    +0.000 A 
ATOM     23  C   UNL     1       9.051   2.665 -16.197  0.00  0.00    +0.000 C 
ATOM     24  C   UNL     1       8.774   1.338 -16.878  0.00  0.00    +0.000 C 
ATOM     25  C   UNL     1       6.931   2.374 -14.912  0.00  0.00    +0.000 A 
ATOM     26  C   UNL     1       7.290   1.225 -17.160  0.00  0.00    +0.000 C 
ATOM     27  C   UNL     1       6.536   1.245 -15.846  0.00  0.00    +0.000 C 
ATOM     28  C   UNL     1       8.577   3.995 -14.208  0.00  0.00    +0.000 A 
ATOM     29  C   UNL     1       6.444   3.659 -13.079  0.00  0.00    +0.000 A 
ATOM     30  C   UNL     1       5.401   3.888 -12.018  0.00  0.00    +0.000 C 
ENDBRANCH  18  22
ENDBRANCH  17  18
ENDBRANCH   1  17
TORSDOF 4
ENDMDL
MODEL 5
REMARK VINA RESULT:   -11.391      3.825     10.389
REMARK INTER + INTRA:         -14.244
REMARK INTER:                 -13.530
REMARK INTRA:                  -0.714
REMARK UNBOUND:                -0.190
REMARK  Name = 5073
REMARK  5 active torsions:
REMARK  status: ('A' for Active; 'I' for Inactive)
REMARK    1  A    between atoms: N_4  and  C_13
REMARK    2  A    between atoms: C_8  and  C_14
REMARK    3  A    between atoms: C_13  and  C_15
REMARK    4  A    between atoms: C_15  and  C_16
REMARK    5  A    between atoms: C_24  and  C_27
REMARK                            x       y       z     vdW  Elec       q    Type
REMARK                         _______ _______ _______ _____ _____    ______ ____
ROOT
ATOM      1  N   UNL     1       8.702   6.513 -12.469  0.00  0.00    +0.000 NA
ATOM      2  C   UNL     1       8.003   3.778 -13.271  0.00  0.00    +0.000 C 
ATOM      3  C   UNL     1       6.940   4.835 -12.924  0.00  0.00    +0.000 C 
ATOM      4  C   UNL     1       9.294   4.471 -13.737  0.00  0.00    +0.000 C 
ATOM      5  C   UNL     1       7.489   5.872 -11.942  0.00  0.00    +0.000 C 
ATOM      6  C   UNL     1       9.756   5.522 -12.725  0.00  0.00    +0.000 C 
ENDROOT
BRANCH   2  10
ATOM      7  F   UNL     1       3.506  -0.931 -14.948  0.00  0.00    +0.000 F 
ATOM      8  O   UNL     1       7.455   1.576 -16.068  0.00  0.00    +0.000 OA
ATOM      9  N   UNL     1       8.161   2.569 -15.402  0.00  0.00    +0.000 NA
ATOM     10  C   UNL     1       7.502   2.750 -14.259  0.00  0.00    +0.000 A 
ATOM     11  C   UNL     1       6.381   1.917 -14.133  0.00  0.00    +0.000 A 
ATOM     12  C   UNL     1       6.393   1.188 -15.310  0.00  0.00    +0.000 A 
ATOM     13  C   UNL     1       5.365   1.679 -13.195  0.00  0.00    +0.000 A 
ATOM     14  C   UNL     1       5.453   0.217 -15.641  0.00  0.00    +0.000 A 
ATOM     15  C   UNL     1       4.401   0.706 -13.496  0.00  0.00    +0.000 A 
ATOM     16  C   UNL     1       4.446  -0.010 -14.696  0.00  0.00    +0.000 A 
ENDBRANCH   2  10
BRANCH   1  17
ATOM     17  C   UNL     1       9.180   7.542 -11.545  0.00  0.00    +0.000 C 
BRANCH  17  18
ATOM     18  C   UNL     1      10.544   7.150 -10.996  0.00  0.00    +0.000 C 
BRANCH  18  22
ATOM     19  O   UNL     1      11.735   9.227  -9.577  0.00  0.00    +0.000 OA
ATOM     20  N   UNL     1      11.219   8.376  -7.472  0.00  0.00    +0.000 N 
ATOM     21  N   UNL     1      10.089   6.304  -7.303  0.00  0.00    +0.000 NA
ATOM     22  C   UNL     1      10.546   7.182  -9.495  0.00  0.00    +0.000 A 
ATOM     23  C   UNL     1      11.945   9.470  -6.819  0.00  0.00    +0.000 C 
ATOM     24  C   UNL     1      11.621   9.659  -5.349  0.00  0.00    +0.000 C 
ATOM     25  C   UNL     1      10.664   7.328  -6.758  0.00  0.00    +0.000 A 
ATOM     26  C   UNL     1      11.697   8.319  -4.648  0.00  0.00    +0.000 C 
ATOM     27  C   UNL     1      10.656   7.393  -5.242  0.00  0.00    +0.000 C 
ATOM     28  C   UNL     1      11.220   8.363  -8.868  0.00  0.00    +0.000 A 
ATOM     29  C   UNL     1      10.032   6.245  -8.675  0.00  0.00    +0.000 A 
ATOM     30  C   UNL     1       9.304   5.027  -9.180  0.00  0.00    +0.000 C 
ENDBRANCH  18  22
ENDBRANCH  17  18
ENDBRANCH   1  17
TORSDOF 4
ENDMDL
MODEL 6
REMARK VINA RESULT:   -10.936      3.451      9.988
REMARK INTER + INTRA:         -13.683
REMARK INTER:                 -13.613
REMARK INTRA:                  -0.070
REMARK UNBOUND:                -0.190
REMARK  Name = 5073
REMARK  5 active torsions:
REMARK  status: ('A' for Active; 'I' for Inactive)
REMARK    1  A    between atoms: N_4  and  C_13
REMARK    2  A    between atoms: C_8  and  C_14
REMARK    3  A    between atoms: C_13  and  C_15
REMARK    4  A    between atoms: C_15  and  C_16
REMARK    5  A    between atoms: C_24  and  C_27
REMARK                            x       y       z     vdW  Elec       q    Type
REMARK                         _______ _______ _______ _____ _____    ______ ____
ROOT
ATOM      1  N   UNL     1      11.308   7.312 -10.559  0.00  0.00    +0.000 NA
ATOM      2  C   UNL     1      10.032   5.984 -12.843  0.00  0.00    +0.000 C 
ATOM      3  C   UNL     1      11.552   6.198 -12.756  0.00  0.00    +0.000 C 
ATOM      4  C   UNL     1       9.427   5.958 -11.429  0.00  0.00    +0.000 C 
ATOM      5  C   UNL     1      11.892   7.423 -11.903  0.00  0.00    +0.000 C 
ATOM      6  C   UNL     1       9.845   7.192 -10.625  0.00  0.00    +0.000 C 
ENDROOT
BRANCH   2  10
ATOM      7  F   UNL     1       5.496   1.326 -14.560  0.00  0.00    +0.000 F 
ATOM      8  O   UNL     1       9.912   3.159 -15.076  0.00  0.00    +0.000 OA
ATOM      9  N   UNL     1      10.557   4.242 -14.493  0.00  0.00    +0.000 NA
ATOM     10  C   UNL     1       9.660   4.767 -13.660  0.00  0.00    +0.000 A 
ATOM     11  C   UNL     1       8.439   4.079 -13.662  0.00  0.00    +0.000 A 
ATOM     12  C   UNL     1       8.648   3.063 -14.580  0.00  0.00    +0.000 A 
ATOM     13  C   UNL     1       7.194   4.171 -13.022  0.00  0.00    +0.000 A 
ATOM     14  C   UNL     1       7.697   2.108 -14.924  0.00  0.00    +0.000 A 
ATOM     15  C   UNL     1       6.211   3.224 -13.344  0.00  0.00    +0.000 A 
ATOM     16  C   UNL     1       6.460   2.213 -14.278  0.00  0.00    +0.000 A 
ENDBRANCH   2  10
BRANCH   1  17
ATOM     17  C   UNL     1      11.690   8.462  -9.739  0.00  0.00    +0.000 C 
BRANCH  17  18
ATOM     18  C   UNL     1      10.536   8.854  -8.829  0.00  0.00    +0.000 C 
BRANCH  18  22
ATOM     19  O   UNL     1      12.118  10.163  -6.951  0.00  0.00    +0.000 OA
ATOM     20  N   UNL     1      11.792   8.595  -5.260  0.00  0.00    +0.000 N 
ATOM     21  N   UNL     1      10.476   6.676  -5.696  0.00  0.00    +0.000 NA
ATOM     22  C   UNL     1      10.736   8.307  -7.445  0.00  0.00    +0.000 A 
ATOM     23  C   UNL     1      12.710   9.316  -4.373  0.00  0.00    +0.000 C 
ATOM     24  C   UNL     1      12.603   8.940  -2.907  0.00  0.00    +0.000 C 
ATOM     25  C   UNL     1      11.225   7.382  -4.909  0.00  0.00    +0.000 A 
ATOM     26  C   UNL     1      12.625   7.432  -2.778  0.00  0.00    +0.000 C 
ATOM     27  C   UNL     1      11.421   6.859  -3.498  0.00  0.00    +0.000 C 
ATOM     28  C   UNL     1      11.610   9.120  -6.542  0.00  0.00    +0.000 A 
ATOM     29  C   UNL     1      10.236   7.153  -6.962  0.00  0.00    +0.000 A 
ATOM     30  C   UNL     1       9.321   6.261  -7.760  0.00  0.00    +0.000 C 
ENDBRANCH  18  22
ENDBRANCH  17  18
ENDBRANCH   1  17
TORSDOF 4
ENDMDL
MODEL 7
REMARK VINA RESULT:   -10.766      4.682     10.276
REMARK INTER + INTRA:         -13.474
REMARK INTER:                 -13.745
REMARK INTRA:                   0.272
REMARK UNBOUND:                -0.190
REMARK  Name = 5073
REMARK  5 active torsions:
REMARK  status: ('A' for Active; 'I' for Inactive)
REMARK    1  A    between atoms: N_4  and  C_13
REMARK    2  A    between atoms: C_8  and  C_14
REMARK    3  A    between atoms: C_13  and  C_15
REMARK    4  A    between atoms: C_15  and  C_16
REMARK    5  A    between atoms: C_24  and  C_27
REMARK                            x       y       z     vdW  Elec       q    Type
REMARK                         _______ _______ _______ _____ _____    ______ ____
ROOT
ATOM      1  N   UNL     1      10.478   8.183 -10.648  0.00  0.00    +0.000 NA
ATOM      2  C   UNL     1      11.477   6.290 -12.656  0.00  0.00    +0.000 C 
ATOM      3  C   UNL     1       9.990   6.665 -12.542  0.00  0.00    +0.000 C 
ATOM      4  C   UNL     1      12.345   7.424 -12.086  0.00  0.00    +0.000 C 
ATOM      5  C   UNL     1       9.629   7.076 -11.112  0.00  0.00    +0.000 C 
ATOM      6  C   UNL     1      11.899   7.807 -10.673  0.00  0.00    +0.000 C 
ENDROOT
BRANCH   2  10
ATOM      7  F   UNL     1      11.785   1.649 -17.512  0.00  0.00    +0.000 F 
ATOM      8  O   UNL     1      12.686   6.140 -16.047  0.00  0.00    +0.000 OA
ATOM      9  N   UNL     1      12.455   6.805 -14.849  0.00  0.00    +0.000 NA
ATOM     10  C   UNL     1      11.874   5.901 -14.063  0.00  0.00    +0.000 A 
ATOM     11  C   UNL     1      11.706   4.657 -14.686  0.00  0.00    +0.000 A 
ATOM     12  C   UNL     1      12.238   4.859 -15.948  0.00  0.00    +0.000 A 
ATOM     13  C   UNL     1      11.181   3.397 -14.362  0.00  0.00    +0.000 A 
ATOM     14  C   UNL     1      12.293   3.886 -16.941  0.00  0.00    +0.000 A 
ATOM     15  C   UNL     1      11.221   2.392 -15.340  0.00  0.00    +0.000 A 
ATOM     16  C   UNL     1      11.766   2.634 -16.604  0.00  0.00    +0.000 A 
ENDBRANCH   2  10
BRANCH   1  17
ATOM     17  C   UNL     1      10.083   8.601  -9.304  0.00  0.00    +0.000 C 
BRANCH  17  18
ATOM     18  C   UNL     1      11.313   9.013  -8.508  0.00  0.00    +0.000 C 
BRANCH  18  22
ATOM     19  O   UNL     1      12.409  10.309  -6.302  0.00  0.00    +0.000 OA
ATOM     20  N   UNL     1      11.900   8.618  -4.782  0.00  0.00    +0.000 N 
ATOM     21  N   UNL     1      10.846   6.645  -5.553  0.00  0.00    +0.000 NA
ATOM     22  C   UNL     1      11.296   8.396  -7.140  0.00  0.00    +0.000 A 
ATOM     23  C   UNL     1      12.577   9.345  -3.703  0.00  0.00    +0.000 C 
ATOM     24  C   UNL     1      12.230   8.872  -2.304  0.00  0.00    +0.000 C 
ATOM     25  C   UNL     1      11.377   7.350  -4.605  0.00  0.00    +0.000 A 
ATOM     26  C   UNL     1      12.347   7.363  -2.247  0.00  0.00    +0.000 C 
ATOM     27  C   UNL     1      11.349   6.754  -3.209  0.00  0.00    +0.000 C 
ATOM     28  C   UNL     1      11.918   9.209  -6.048  0.00  0.00    +0.000 A 
ATOM     29  C   UNL     1      10.808   7.182  -6.817  0.00  0.00    +0.000 A 
ATOM     30  C   UNL     1      10.132   6.280  -7.816  0.00  0.00    +0.000 C 
ENDBRANCH  18  22
ENDBRANCH  17  18
ENDBRANCH   1  17
TORSDOF 4
ENDMDL
MODEL 8
REMARK VINA RESULT:   -10.737      2.281      3.627
REMARK INTER + INTRA:         -13.438
REMARK INTER:                 -13.195
REMARK INTRA:                  -0.243
REMARK UNBOUND:                -0.190
REMARK  Name = 5073
REMARK  5 active torsions:
REMARK  status: ('A' for Active; 'I' for Inactive)
REMARK    1  A    between atoms: N_4  and  C_13
REMARK    2  A    between atoms: C_8  and  C_14
REMARK    3  A    between atoms: C_13  and  C_15
REMARK    4  A    between atoms: C_15  and  C_16
REMARK    5  A    between atoms: C_24  and  C_27
REMARK                            x       y       z     vdW  Elec       q    Type
REMARK                         _______ _______ _______ _____ _____    ______ ____
ROOT
ATOM      1  N   UNL     1       9.083   4.737 -12.778  0.00  0.00    +0.000 NA
ATOM      2  C   UNL     1       9.982   6.901 -11.012  0.00  0.00    +0.000 C 
ATOM      3  C   UNL     1       9.165   5.703 -10.500  0.00  0.00    +0.000 C 
ATOM      4  C   UNL     1      10.744   6.506 -12.288  0.00  0.00    +0.000 C 
ATOM      5  C   UNL     1       8.282   5.120 -11.606  0.00  0.00    +0.000 C 
ATOM      6  C   UNL     1       9.803   5.893 -13.328  0.00  0.00    +0.000 C 
ENDROOT
BRANCH   2  10
ATOM      7  F   UNL     1      11.375   7.925  -4.514  0.00  0.00    +0.000 F 
ATOM      8  O   UNL     1      12.571   8.553  -9.129  0.00  0.00    +0.000 OA
ATOM      9  N   UNL     1      11.977   8.155 -10.319  0.00  0.00    +0.000 NA
ATOM     10  C   UNL     1      10.885   7.488  -9.951  0.00  0.00    +0.000 A 
ATOM     11  C   UNL     1      10.724   7.423  -8.559  0.00  0.00    +0.000 A 
ATOM     12  C   UNL     1      11.823   8.116  -8.080  0.00  0.00    +0.000 A 
ATOM     13  C   UNL     1       9.810   6.879  -7.644  0.00  0.00    +0.000 A 
ATOM     14  C   UNL     1      12.096   8.317  -6.730  0.00  0.00    +0.000 A 
ATOM     15  C   UNL     1      10.054   7.064  -6.276  0.00  0.00    +0.000 A 
ATOM     16  C   UNL     1      11.176   7.770  -5.830  0.00  0.00    +0.000 A 
ENDBRANCH   2  10
BRANCH   1  17
ATOM     17  C   UNL     1       8.232   4.129 -13.801  0.00  0.00    +0.000 C 
BRANCH  17  18
ATOM     18  C   UNL     1       8.662   2.689 -14.043  0.00  0.00    +0.000 C 
BRANCH  18  22
ATOM     19  O   UNL     1       6.496   1.254 -13.046  0.00  0.00    +0.000 OA
ATOM     20  N   UNL     1       5.687   0.606 -15.132  0.00  0.00    +0.000 N 
ATOM     21  N   UNL     1       6.866   1.243 -17.083  0.00  0.00    +0.000 NA
ATOM     22  C   UNL     1       7.695   1.988 -14.951  0.00  0.00    +0.000 A 
ATOM     23  C   UNL     1       4.628  -0.192 -14.506  0.00  0.00    +0.000 C 
ATOM     24  C   UNL     1       3.490  -0.575 -15.433  0.00  0.00    +0.000 C 
ATOM     25  C   UNL     1       5.892   0.618 -16.500  0.00  0.00    +0.000 A 
ATOM     26  C   UNL     1       4.063  -1.145 -16.714  0.00  0.00    +0.000 C 
ATOM     27  C   UNL     1       4.889  -0.078 -17.402  0.00  0.00    +0.000 C 
ATOM     28  C   UNL     1       6.576   1.258 -14.275  0.00  0.00    +0.000 A 
ATOM     29  C   UNL     1       7.760   1.929 -16.295  0.00  0.00    +0.000 A 
ATOM     30  C   UNL     1       8.818   2.643 -17.095  0.00  0.00    +0.000 C 
ENDBRANCH  18  22
ENDBRANCH  17  18
ENDBRANCH   1  17
TORSDOF 4
ENDMDL
MODEL 9
REMARK VINA RESULT:   -10.326      4.043     10.546
REMARK INTER + INTRA:         -12.930
REMARK INTER:                 -12.692
REMARK INTRA:                  -0.238
REMARK UNBOUND:                -0.190
REMARK  Name = 5073
REMARK  5 active torsions:
REMARK  status: ('A' for Active; 'I' for Inactive)
REMARK    1  A    between atoms: N_4  and  C_13
REMARK    2  A    between atoms: C_8  and  C_14
REMARK    3  A    between atoms: C_13  and  C_15
REMARK    4  A    between atoms: C_15  and  C_16
REMARK    5  A    between atoms: C_24  and  C_27
REMARK                            x       y       z     vdW  Elec       q    Type
REMARK                         _______ _______ _______ _____ _____    ______ ____
ROOT
ATOM      1  N   UNL     1       8.420   5.744 -12.958  0.00  0.00    +0.000 NA
ATOM      2  C   UNL     1       7.769   3.025 -13.848  0.00  0.00    +0.000 C 
ATOM      3  C   UNL     1       6.755   3.919 -13.115  0.00  0.00    +0.000 C 
ATOM      4  C   UNL     1       8.816   3.898 -14.559  0.00  0.00    +0.000 C 
ATOM      5  C   UNL     1       7.460   4.926 -12.203  0.00  0.00    +0.000 C 
ATOM      6  C   UNL     1       9.445   4.906 -13.595  0.00  0.00    +0.000 C 
ENDROOT
BRANCH   2  10
ATOM      7  F   UNL     1       2.776  -1.305 -15.091  0.00  0.00    +0.000 F 
ATOM      8  O   UNL     1       6.818   0.850 -16.558  0.00  0.00    +0.000 OA
ATOM      9  N   UNL     1       7.655   1.786 -15.966  0.00  0.00    +0.000 NA
ATOM     10  C   UNL     1       7.107   2.032 -14.777  0.00  0.00    +0.000 A 
ATOM     11  C   UNL     1       5.934   1.298 -14.550  0.00  0.00    +0.000 A 
ATOM     12  C   UNL     1       5.792   0.560 -15.713  0.00  0.00    +0.000 A 
ATOM     13  C   UNL     1       4.980   1.156 -13.532  0.00  0.00    +0.000 A 
ATOM     14  C   UNL     1       4.750  -0.332 -15.953  0.00  0.00    +0.000 A 
ATOM     15  C   UNL     1       3.917   0.265 -13.740  0.00  0.00    +0.000 A 
ATOM     16  C   UNL     1       3.806  -0.463 -14.929  0.00  0.00    +0.000 A 
ENDBRANCH   2  10
BRANCH   1  17
ATOM     17  C   UNL     1       9.042   6.738 -12.084  0.00  0.00    +0.000 C 
BRANCH  17  18
ATOM     18  C   UNL     1      10.458   6.305 -11.734  0.00  0.00    +0.000 C 
BRANCH  18  22
ATOM     19  O   UNL     1       9.240   5.918  -9.262  0.00  0.00    +0.000 OA
ATOM     20  N   UNL     1      10.649   7.361  -8.097  0.00  0.00    +0.000 N 
ATOM     21  N   UNL     1      12.333   8.537  -9.272  0.00  0.00    +0.000 NA
ATOM     22  C   UNL     1      10.941   7.005 -10.497  0.00  0.00    +0.000 A 
ATOM     23  C   UNL     1       9.887   7.155  -6.861  0.00  0.00    +0.000 C 
ATOM     24  C   UNL     1      10.605   7.581  -5.594  0.00  0.00    +0.000 C 
ATOM     25  C   UNL     1      11.692   8.266  -8.179  0.00  0.00    +0.000 A 
ATOM     26  C   UNL     1      11.166   8.974  -5.786  0.00  0.00    +0.000 C 
ATOM     27  C   UNL     1      12.179   8.946  -6.912  0.00  0.00    +0.000 C 
ATOM     28  C   UNL     1      10.192   6.698  -9.238  0.00  0.00    +0.000 A 
ATOM     29  C   UNL     1      11.950   7.896 -10.425  0.00  0.00    +0.000 A 
ATOM     30  C   UNL     1      12.799   8.268 -11.612  0.00  0.00    +0.000 C 
ENDBRANCH  18  22
ENDBRANCH  17  18
ENDBRANCH   1  17
TORSDOF 4
ENDMDL
MODEL 10
REMARK VINA RESULT:   -10.313      1.894      3.121
REMARK INTER + INTRA:         -12.915
REMARK INTER:                 -13.066
REMARK INTRA:                   0.151
REMARK UNBOUND:                -0.190
REMARK  Name = 5073
REMARK  5 active torsions:
REMARK  status: ('A' for Active; 'I' for Inactive)
REMARK    1  A    between atoms: N_4  and  C_13
REMARK    2  A    between atoms: C_8  and  C_14
REMARK    3  A    between atoms: C_13  and  C_15
REMARK    4  A    between atoms: C_15  and  C_16
REMARK    5  A    between atoms: C_24  and  C_27
REMARK                            x       y       z     vdW  Elec       q    Type
REMARK                         _______ _______ _______ _____ _____    ______ ____
ROOT
ATOM      1  N   UNL     1       9.930   4.883 -12.098  0.00  0.00    +0.000 NA
ATOM      2  C   UNL     1      10.014   7.247 -10.362  0.00  0.00    +0.000 C 
ATOM      3  C   UNL     1       9.620   5.854  -9.842  0.00  0.00    +0.000 C 
ATOM      4  C   UNL     1      10.903   7.106 -11.609  0.00  0.00    +0.000 C 
ATOM      5  C   UNL     1       9.012   4.998 -10.955  0.00  0.00    +0.000 C 
ATOM      6  C   UNL     1      10.248   6.204 -12.657  0.00  0.00    +0.000 C 
ENDROOT
BRANCH   2  10
ATOM      7  F   UNL     1      11.592   8.237  -3.901  0.00  0.00    +0.000 F 
ATOM      8  O   UNL     1      11.667   9.810  -8.445  0.00  0.00    +0.000 OA
ATOM      9  N   UNL     1      11.193   9.275  -9.635  0.00  0.00    +0.000 NA
ATOM     10  C   UNL     1      10.641   8.113  -9.292  0.00  0.00    +0.000 A 
ATOM     11  C   UNL     1      10.727   7.847  -7.918  0.00  0.00    +0.000 A 
ATOM     12  C   UNL     1      11.389   8.957  -7.421  0.00  0.00    +0.000 A 
ATOM     13  C   UNL     1      10.342   6.831  -7.031  0.00  0.00    +0.000 A 
ATOM     14  C   UNL     1      11.708   9.145  -6.080  0.00  0.00    +0.000 A 
ATOM     15  C   UNL     1      10.647   6.987  -5.671  0.00  0.00    +0.000 A 
ATOM     16  C   UNL     1      11.318   8.123  -5.207  0.00  0.00    +0.000 A 
ENDBRANCH   2  10
BRANCH   1  17
ATOM     17  C   UNL     1       9.358   4.015 -13.127  0.00  0.00    +0.000 C 
BRANCH  17  18
ATOM     18  C   UNL     1       7.982   4.526 -13.529  0.00  0.00    +0.000 C 
BRANCH  18  22
ATOM     19  O   UNL     1       8.377   2.274 -15.115  0.00  0.00    +0.000 OA
ATOM     20  N   UNL     1       6.393   1.222 -14.496  0.00  0.00    +0.000 N 
ATOM     21  N   UNL     1       4.916   2.315 -13.005  0.00  0.00    +0.000 NA
ATOM     22  C   UNL     1       6.986   3.404 -13.569  0.00  0.00    +0.000 A 
ATOM     23  C   UNL     1       6.654   0.119 -15.427  0.00  0.00    +0.000 C 
ATOM     24  C   UNL     1       5.831  -1.131 -15.176  0.00  0.00    +0.000 C 
ATOM     25  C   UNL     1       5.218   1.316 -13.773  0.00  0.00    +0.000 A 
ATOM     26  C   UNL     1       4.376  -0.744 -15.018  0.00  0.00    +0.000 C 
ATOM     27  C   UNL     1       4.236   0.160 -13.810  0.00  0.00    +0.000 C 
ATOM     28  C   UNL     1       7.332   2.256 -14.465  0.00  0.00    +0.000 A 
ATOM     29  C   UNL     1       5.812   3.353 -12.909  0.00  0.00    +0.000 A 
ATOM     30  C   UNL     1       5.362   4.429 -11.957  0.00  0.00    +0.000 C 
ENDBRANCH  18  22
ENDBRANCH  17  18
ENDBRANCH   1  17
TORSDOF 4
ENDMDL
