REMARK  Name = 5467
REMARK  12 active torsions:
REMARK  status: ('A' for Active; 'I' for Inactive)
REMARK    1  A    between atoms: S_1  and  C_16
REMARK    2  A    between atoms: S_1  and  C_21
REMARK    3  A    between atoms: O_2  and  C_18
REMARK    4  A    between atoms: O_2  and  C_22
REMARK    5  A    between atoms: N_6  and  C_8
REMARK    6  A    between atoms: N_6  and  C_10
REMARK    7  A    between atoms: N_6  and  C_11
REMARK    8  A    between atoms: N_7  and  C_9
REMARK    9  A    between atoms: C_8  and  C_9
REMARK   10  A    between atoms: C_10  and  C_12
REMARK   11  A    between atoms: C_11  and  C_13
REMARK   12  A    between atoms: C_14  and  C_15
REMARK                            x       y       z     vdW  Elec       q    Type
REMARK                         _______ _______ _______ _____ _____    ______ ____
ROOT
ATOM      1  C   UNL     1       1.176  -0.679   0.400  0.00  0.00    +0.000 A 
ATOM      2  C   UNL     1       3.246   0.377  -0.163  0.00  0.00    +0.000 A 
ATOM      3  C   UNL     1       1.905   0.478   0.209  0.00  0.00    +0.000 A 
ATOM      4  C   UNL     1       1.731  -1.932   0.235  0.00  0.00    +0.000 A 
ATOM      5  C   UNL     1       3.829  -0.878  -0.336  0.00  0.00    +0.000 A 
ATOM      6  C   UNL     1       3.072  -2.033  -0.137  0.00  0.00    +0.000 A 
ENDROOT
BRANCH   2   7
ATOM      7  S   UNL     1       4.194   1.822  -0.412  0.00  0.00    +0.000 S 
ATOM      8  O   UNL     1       5.287   1.491  -1.316  0.00  0.00    +0.000 OA
ATOM      9  O   UNL     1       3.299   2.925  -0.734  0.00  0.00    +0.000 OA
ATOM     10  C   UNL     1       4.894   2.172   1.185  0.00  0.00    +0.000 C 
ENDBRANCH   2   7
BRANCH   1  13
ATOM     11  O   UNL     1      -0.758  -1.415   1.502  0.00  0.00    +0.000 OA
ATOM     12  N   UNL     1      -0.910   0.587   0.340  0.00  0.00    +0.000 N 
ATOM     13  C   UNL     1      -0.250  -0.549   0.795  0.00  0.00    +0.000 C 
ATOM     14  H   UNL     1      -0.449   1.229  -0.297  0.00  0.00    +0.000 HD
BRANCH  12  15
ATOM     15  C   UNL     1      -2.283   0.866   0.658  0.00  0.00    +0.000 C 
BRANCH  15  16
ATOM     16  C   UNL     1      -3.222   0.269  -0.380  0.00  0.00    +0.000 C 
BRANCH  16  17
ATOM     17  N   UNL     1      -4.614   0.540  -0.022  0.00  0.00    +0.000 NA
BRANCH  17  18
ATOM     18  C   UNL     1      -4.848   1.980   0.067  0.00  0.00    +0.000 C 
ATOM     19  C   UNL     1      -6.274   2.280   0.497  0.00  0.00    +0.000 C 
ENDBRANCH  17  18
BRANCH  17  20
ATOM     20  C   UNL     1      -5.520  -0.066  -0.998  0.00  0.00    +0.000 C 
ATOM     21  C   UNL     1      -5.290  -1.564  -1.103  0.00  0.00    +0.000 C 
ENDBRANCH  17  20
ENDBRANCH  16  17
ENDBRANCH  15  16
ENDBRANCH  12  15
ENDBRANCH   1  13
BRANCH   4  22
ATOM     22  O   UNL     1       1.008  -3.071   0.425  0.00  0.00    +0.000 OA
ATOM     23  C   UNL     1       0.326  -3.601  -0.710  0.00  0.00    +0.000 C 
ENDBRANCH   4  22
TORSDOF 8
