MODEL 1
REMARK VINA RESULT:    -6.997      0.000      0.000
REMARK INTER + INTRA:         -10.909
REMARK INTER:                 -10.270
REMARK INTRA:                  -0.639
REMARK UNBOUND:                -0.639
REMARK  Name = 5467
REMARK  12 active torsions:
REMARK  status: ('A' for Active; 'I' for Inactive)
REMARK    1  A    between atoms: S_1  and  C_16
REMARK    2  A    between atoms: S_1  and  C_21
REMARK    3  A    between atoms: O_2  and  C_18
REMARK    4  A    between atoms: O_2  and  C_22
REMARK    5  A    between atoms: N_6  and  C_8
REMARK    6  A    between atoms: N_6  and  C_10
REMARK    7  A    between atoms: N_6  and  C_11
REMARK    8  A    between atoms: N_7  and  C_9
REMARK    9  A    between atoms: C_8  and  C_9
REMARK   10  A    between atoms: C_10  and  C_12
REMARK   11  A    between atoms: C_11  and  C_13
REMARK   12  A    between atoms: C_14  and  C_15
REMARK                            x       y       z     vdW  Elec       q    Type
REMARK                         _______ _______ _______ _____ _____    ______ ____
ROOT
ATOM      1  C   UNL     1       8.377   5.041 -12.378  0.00  0.00    +0.000 A 
ATOM      2  C   UNL     1       8.022   3.097 -13.726  0.00  0.00    +0.000 A 
ATOM      3  C   UNL     1       8.895   3.953 -13.054  0.00  0.00    +0.000 A 
ATOM      4  C   UNL     1       7.023   5.308 -12.347  0.00  0.00    +0.000 A 
ATOM      5  C   UNL     1       6.650   3.347 -13.708  0.00  0.00    +0.000 A 
ATOM      6  C   UNL     1       6.150   4.452 -13.019  0.00  0.00    +0.000 A 
ENDROOT
BRANCH   2   7
ATOM      7  S   UNL     1       8.647   1.714 -14.588  0.00  0.00    +0.000 S 
ATOM      8  O   UNL     1       8.367   1.905 -16.005  0.00  0.00    +0.000 OA
ATOM      9  O   UNL     1      10.012   1.461 -14.149  0.00  0.00    +0.000 OA
ATOM     10  C   UNL     1       7.657   0.352 -14.016  0.00  0.00    +0.000 C 
ENDBRANCH   2   7
BRANCH   1  13
ATOM     11  O   UNL     1      10.080   6.651 -12.326  0.00  0.00    +0.000 OA
ATOM     12  N   UNL     1       9.262   5.922 -10.281  0.00  0.00    +0.000 N 
ATOM     13  C   UNL     1       9.324   5.940 -11.670  0.00  0.00    +0.000 C 
ATOM     14  H   UNL     1       8.660   5.261  -9.802  0.00  0.00    +0.000 HD
BRANCH  12  15
ATOM     15  C   UNL     1      10.096   6.752  -9.457  0.00  0.00    +0.000 C 
BRANCH  15  16
ATOM     16  C   UNL     1       9.895   6.443  -7.981  0.00  0.00    +0.000 C 
BRANCH  16  17
ATOM     17  N   UNL     1      11.029   6.936  -7.200  0.00  0.00    +0.000 NA
BRANCH  17  18
ATOM     18  C   UNL     1      11.791   7.919  -7.967  0.00  0.00    +0.000 C 
ATOM     19  C   UNL     1      11.766   9.281  -7.295  0.00  0.00    +0.000 C 
ENDBRANCH  17  18
BRANCH  17  20
ATOM     20  C   UNL     1      10.567   7.518  -5.939  0.00  0.00    +0.000 C 
ATOM     21  C   UNL     1      11.262   6.874  -4.751  0.00  0.00    +0.000 C 
ENDBRANCH  17  20
ENDBRANCH  16  17
ENDBRANCH  15  16
ENDBRANCH  12  15
ENDBRANCH   1  13
BRANCH   4  22
ATOM     22  O   UNL     1       6.516   6.382 -11.679  0.00  0.00    +0.000 OA
ATOM     23  C   UNL     1       6.459   7.617 -12.390  0.00  0.00    +0.000 C 
ENDBRANCH   4  22
TORSDOF 8
ENDMDL
MODEL 2
REMARK VINA RESULT:    -6.976      4.314      8.556
REMARK INTER + INTRA:         -10.878
REMARK INTER:                 -10.509
REMARK INTRA:                  -0.370
REMARK UNBOUND:                -0.639
REMARK  Name = 5467
REMARK  12 active torsions:
REMARK  status: ('A' for Active; 'I' for Inactive)
REMARK    1  A    between atoms: S_1  and  C_16
REMARK    2  A    between atoms: S_1  and  C_21
REMARK    3  A    between atoms: O_2  and  C_18
REMARK    4  A    between atoms: O_2  and  C_22
REMARK    5  A    between atoms: N_6  and  C_8
REMARK    6  A    between atoms: N_6  and  C_10
REMARK    7  A    between atoms: N_6  and  C_11
REMARK    8  A    between atoms: N_7  and  C_9
REMARK    9  A    between atoms: C_8  and  C_9
REMARK   10  A    between atoms: C_10  and  C_12
REMARK   11  A    between atoms: C_11  and  C_13
REMARK   12  A    between atoms: C_14  and  C_15
REMARK                            x       y       z     vdW  Elec       q    Type
REMARK                         _______ _______ _______ _____ _____    ______ ____
ROOT
ATOM      1  C   UNL     1      10.567   7.375  -7.607  0.00  0.00    +0.000 A 
ATOM      2  C   UNL     1      11.687   8.573  -5.867  0.00  0.00    +0.000 A 
ATOM      3  C   UNL     1      10.705   7.665  -6.264  0.00  0.00    +0.000 A 
ATOM      4  C   UNL     1      11.370   7.953  -8.569  0.00  0.00    +0.000 A 
ATOM      5  C   UNL     1      12.510   9.171  -6.821  0.00  0.00    +0.000 A 
ATOM      6  C   UNL     1      12.352   8.862  -8.173  0.00  0.00    +0.000 A 
ENDROOT
BRANCH   2   7
ATOM      7  S   UNL     1      11.886   8.961  -4.177  0.00  0.00    +0.000 S 
ATOM      8  O   UNL     1      13.310   9.134  -3.921  0.00  0.00    +0.000 OA
ATOM      9  O   UNL     1      10.954  10.023  -3.822  0.00  0.00    +0.000 OA
ATOM     10  C   UNL     1      11.353   7.496  -3.321  0.00  0.00    +0.000 C 
ENDBRANCH   2   7
BRANCH   1  13
ATOM     11  O   UNL     1       8.656   6.082  -7.192  0.00  0.00    +0.000 OA
ATOM     12  N   UNL     1       9.573   5.946  -9.318  0.00  0.00    +0.000 N 
ATOM     13  C   UNL     1       9.515   6.406  -8.007  0.00  0.00    +0.000 C 
ATOM     14  H   UNL     1      10.350   6.203  -9.919  0.00  0.00    +0.000 HD
BRANCH  12  15
ATOM     15  C   UNL     1       8.613   5.026  -9.861  0.00  0.00    +0.000 C 
BRANCH  15  16
ATOM     16  C   UNL     1       8.523   5.151 -11.375  0.00  0.00    +0.000 C 
BRANCH  16  17
ATOM     17  N   UNL     1       7.334   5.915 -11.752  0.00  0.00    +0.000 NA
BRANCH  17  18
ATOM     18  C   UNL     1       7.714   7.229 -12.269  0.00  0.00    +0.000 C 
ATOM     19  C   UNL     1       6.490   8.053 -12.630  0.00  0.00    +0.000 C 
ENDBRANCH  17  18
BRANCH  17  20
ATOM     20  C   UNL     1       6.549   5.182 -12.745  0.00  0.00    +0.000 C 
ATOM     21  C   UNL     1       5.736   4.076 -12.093  0.00  0.00    +0.000 C 
ENDBRANCH  17  20
ENDBRANCH  16  17
ENDBRANCH  15  16
ENDBRANCH  12  15
ENDBRANCH   1  13
BRANCH   4  22
ATOM     22  O   UNL     1      11.230   7.663  -9.893  0.00  0.00    +0.000 OA
ATOM     23  C   UNL     1      12.376   7.853 -10.721  0.00  0.00    +0.000 C 
ENDBRANCH   4  22
TORSDOF 8
ENDMDL
MODEL 3
REMARK VINA RESULT:    -6.906      4.389      8.389
REMARK INTER + INTRA:         -10.775
REMARK INTER:                 -10.303
REMARK INTRA:                  -0.472
REMARK UNBOUND:                -0.639
REMARK  Name = 5467
REMARK  12 active torsions:
REMARK  status: ('A' for Active; 'I' for Inactive)
REMARK    1  A    between atoms: S_1  and  C_16
REMARK    2  A    between atoms: S_1  and  C_21
REMARK    3  A    between atoms: O_2  and  C_18
REMARK    4  A    between atoms: O_2  and  C_22
REMARK    5  A    between atoms: N_6  and  C_8
REMARK    6  A    between atoms: N_6  and  C_10
REMARK    7  A    between atoms: N_6  and  C_11
REMARK    8  A    between atoms: N_7  and  C_9
REMARK    9  A    between atoms: C_8  and  C_9
REMARK   10  A    between atoms: C_10  and  C_12
REMARK   11  A    between atoms: C_11  and  C_13
REMARK   12  A    between atoms: C_14  and  C_15
REMARK                            x       y       z     vdW  Elec       q    Type
REMARK                         _______ _______ _______ _____ _____    ______ ____
ROOT
ATOM      1  C   UNL     1      11.497   7.704  -8.147  0.00  0.00    +0.000 A 
ATOM      2  C   UNL     1      11.302   8.275  -5.833  0.00  0.00    +0.000 A 
ATOM      3  C   UNL     1      11.984   8.380  -7.046  0.00  0.00    +0.000 A 
ATOM      4  C   UNL     1      10.356   6.929  -8.087  0.00  0.00    +0.000 A 
ATOM      5  C   UNL     1      10.147   7.498  -5.748  0.00  0.00    +0.000 A 
ATOM      6  C   UNL     1       9.674   6.825  -6.874  0.00  0.00    +0.000 A 
ENDROOT
BRANCH   2   7
ATOM      7  S   UNL     1      11.894   9.118  -4.423  0.00  0.00    +0.000 S 
ATOM      8  O   UNL     1      13.294   9.447  -4.652  0.00  0.00    +0.000 OA
ATOM      9  O   UNL     1      10.952  10.172  -4.072  0.00  0.00    +0.000 OA
ATOM     10  C   UNL     1      11.824   7.907  -3.123  0.00  0.00    +0.000 C 
ENDBRANCH   2   7
BRANCH   1  13
ATOM     11  O   UNL     1      13.412   8.191  -9.409  0.00  0.00    +0.000 OA
ATOM     12  N   UNL     1      11.534   7.492 -10.578  0.00  0.00    +0.000 N 
ATOM     13  C   UNL     1      12.239   7.828  -9.428  0.00  0.00    +0.000 C 
ATOM     14  H   UNL     1      10.546   7.265 -10.528  0.00  0.00    +0.000 HD
BRANCH  12  15
ATOM     15  C   UNL     1      12.122   7.538 -11.889  0.00  0.00    +0.000 C 
BRANCH  15  16
ATOM     16  C   UNL     1      11.082   7.279 -12.969  0.00  0.00    +0.000 C 
BRANCH  16  17
ATOM     17  N   UNL     1      10.473   5.962 -12.784  0.00  0.00    +0.000 NA
BRANCH  17  18
ATOM     18  C   UNL     1       9.040   6.092 -12.529  0.00  0.00    +0.000 C 
ATOM     19  C   UNL     1       8.257   4.984 -13.213  0.00  0.00    +0.000 C 
ENDBRANCH  17  18
BRANCH  17  20
ATOM     20  C   UNL     1      10.710   5.120 -13.957  0.00  0.00    +0.000 C 
ATOM     21  C   UNL     1      12.085   4.476 -13.901  0.00  0.00    +0.000 C 
ENDBRANCH  17  20
ENDBRANCH  16  17
ENDBRANCH  15  16
ENDBRANCH  12  15
ENDBRANCH   1  13
BRANCH   4  22
ATOM     22  O   UNL     1       9.879   6.264  -9.176  0.00  0.00    +0.000 OA
ATOM     23  C   UNL     1       9.123   5.080  -8.931  0.00  0.00    +0.000 C 
ENDBRANCH   4  22
TORSDOF 8
ENDMDL
MODEL 4
REMARK VINA RESULT:    -6.881      3.702      8.106
REMARK INTER + INTRA:         -10.739
REMARK INTER:                 -10.024
REMARK INTRA:                  -0.715
REMARK UNBOUND:                -0.639
REMARK  Name = 5467
REMARK  12 active torsions:
REMARK  status: ('A' for Active; 'I' for Inactive)
REMARK    1  A    between atoms: S_1  and  C_16
REMARK    2  A    between atoms: S_1  and  C_21
REMARK    3  A    between atoms: O_2  and  C_18
REMARK    4  A    between atoms: O_2  and  C_22
REMARK    5  A    between atoms: N_6  and  C_8
REMARK    6  A    between atoms: N_6  and  C_10
REMARK    7  A    between atoms: N_6  and  C_11
REMARK    8  A    between atoms: N_7  and  C_9
REMARK    9  A    between atoms: C_8  and  C_9
REMARK   10  A    between atoms: C_10  and  C_12
REMARK   11  A    between atoms: C_11  and  C_13
REMARK   12  A    between atoms: C_14  and  C_15
REMARK                            x       y       z     vdW  Elec       q    Type
REMARK                         _______ _______ _______ _____ _____    ______ ____
ROOT
ATOM      1  C   UNL     1      10.068   6.789  -9.529  0.00  0.00    +0.000 A 
ATOM      2  C   UNL     1      11.016   8.106  -7.773  0.00  0.00    +0.000 A 
ATOM      3  C   UNL     1      10.121   7.120  -8.190  0.00  0.00    +0.000 A 
ATOM      4  C   UNL     1      10.872   7.402 -10.469  0.00  0.00    +0.000 A 
ATOM      5  C   UNL     1      11.839   8.739  -8.704  0.00  0.00    +0.000 A 
ATOM      6  C   UNL     1      11.767   8.388 -10.052  0.00  0.00    +0.000 A 
ENDROOT
BRANCH   2   7
ATOM      7  S   UNL     1      11.106   8.546  -6.085  0.00  0.00    +0.000 S 
ATOM      8  O   UNL     1      12.407   9.156  -5.850  0.00  0.00    +0.000 OA
ATOM      9  O   UNL     1       9.893   9.265  -5.719  0.00  0.00    +0.000 OA
ATOM     10  C   UNL     1      11.067   6.992  -5.221  0.00  0.00    +0.000 C 
ENDBRANCH   2   7
BRANCH   1  13
ATOM     11  O   UNL     1       8.945   4.752  -9.239  0.00  0.00    +0.000 OA
ATOM     12  N   UNL     1       8.431   5.971 -11.144  0.00  0.00    +0.000 N 
ATOM     13  C   UNL     1       9.107   5.738  -9.952  0.00  0.00    +0.000 C 
ATOM     14  H   UNL     1       8.662   6.775 -11.718  0.00  0.00    +0.000 HD
BRANCH  12  15
ATOM     15  C   UNL     1       7.454   5.060 -11.672  0.00  0.00    +0.000 C 
BRANCH  15  16
ATOM     16  C   UNL     1       7.862   4.549 -13.046  0.00  0.00    +0.000 C 
BRANCH  16  17
ATOM     17  N   UNL     1       6.880   3.584 -13.542  0.00  0.00    +0.000 NA
BRANCH  17  18
ATOM     18  C   UNL     1       7.527   2.309 -13.849  0.00  0.00    +0.000 C 
ATOM     19  C   UNL     1       7.774   2.163 -15.341  0.00  0.00    +0.000 C 
ENDBRANCH  17  18
BRANCH  17  20
ATOM     20  C   UNL     1       5.812   3.392 -12.561  0.00  0.00    +0.000 C 
ATOM     21  C   UNL     1       5.348   1.946 -12.531  0.00  0.00    +0.000 C 
ENDBRANCH  17  20
ENDBRANCH  16  17
ENDBRANCH  15  16
ENDBRANCH  12  15
ENDBRANCH   1  13
BRANCH   4  22
ATOM     22  O   UNL     1      10.817   7.073 -11.790  0.00  0.00    +0.000 OA
ATOM     23  C   UNL     1      12.043   7.113 -12.518  0.00  0.00    +0.000 C 
ENDBRANCH   4  22
TORSDOF 8
ENDMDL
MODEL 5
REMARK VINA RESULT:    -6.841      3.469      7.975
REMARK INTER + INTRA:         -10.680
REMARK INTER:                  -9.894
REMARK INTRA:                  -0.787
REMARK UNBOUND:                -0.639
REMARK  Name = 5467
REMARK  12 active torsions:
REMARK  status: ('A' for Active; 'I' for Inactive)
REMARK    1  A    between atoms: S_1  and  C_16
REMARK    2  A    between atoms: S_1  and  C_21
REMARK    3  A    between atoms: O_2  and  C_18
REMARK    4  A    between atoms: O_2  and  C_22
REMARK    5  A    between atoms: N_6  and  C_8
REMARK    6  A    between atoms: N_6  and  C_10
REMARK    7  A    between atoms: N_6  and  C_11
REMARK    8  A    between atoms: N_7  and  C_9
REMARK    9  A    between atoms: C_8  and  C_9
REMARK   10  A    between atoms: C_10  and  C_12
REMARK   11  A    between atoms: C_11  and  C_13
REMARK   12  A    between atoms: C_14  and  C_15
REMARK                            x       y       z     vdW  Elec       q    Type
REMARK                         _______ _______ _______ _____ _____    ______ ____
ROOT
ATOM      1  C   UNL     1      10.301   6.780 -11.592  0.00  0.00    +0.000 A 
ATOM      2  C   UNL     1      11.274   7.811  -9.668  0.00  0.00    +0.000 A 
ATOM      3  C   UNL     1      10.193   7.168 -10.272  0.00  0.00    +0.000 A 
ATOM      4  C   UNL     1      11.443   7.007 -12.334  0.00  0.00    +0.000 A 
ATOM      5  C   UNL     1      12.439   8.052 -10.396  0.00  0.00    +0.000 A 
ATOM      6  C   UNL     1      12.524   7.649 -11.729  0.00  0.00    +0.000 A 
ENDROOT
BRANCH   2   7
ATOM      7  S   UNL     1      11.169   8.315  -7.999  0.00  0.00    +0.000 S 
ATOM      8  O   UNL     1      12.391   9.036  -7.670  0.00  0.00    +0.000 OA
ATOM      9  O   UNL     1       9.875   8.946  -7.777  0.00  0.00    +0.000 OA
ATOM     10  C   UNL     1      11.168   6.794  -7.078  0.00  0.00    +0.000 C 
ENDBRANCH   2   7
BRANCH   1  13
ATOM     11  O   UNL     1       8.062   6.686 -12.282  0.00  0.00    +0.000 OA
ATOM     12  N   UNL     1       9.372   4.820 -12.713  0.00  0.00    +0.000 N 
ATOM     13  C   UNL     1       9.138   6.098 -12.217  0.00  0.00    +0.000 C 
ATOM     14  H   UNL     1      10.269   4.368 -12.566  0.00  0.00    +0.000 HD
BRANCH  12  15
ATOM     15  C   UNL     1       8.355   4.043 -13.366  0.00  0.00    +0.000 C 
BRANCH  15  16
ATOM     16  C   UNL     1       8.946   2.810 -14.034  0.00  0.00    +0.000 C 
BRANCH  16  17
ATOM     17  N   UNL     1       8.114   1.638 -13.765  0.00  0.00    +0.000 NA
BRANCH  17  18
ATOM     18  C   UNL     1       6.715   1.921 -14.082  0.00  0.00    +0.000 C 
ATOM     19  C   UNL     1       5.788   0.909 -13.430  0.00  0.00    +0.000 C 
ENDBRANCH  17  18
BRANCH  17  20
ATOM     20  C   UNL     1       8.590   0.487 -14.531  0.00  0.00    +0.000 C 
ATOM     21  C   UNL     1       9.979   0.738 -15.092  0.00  0.00    +0.000 C 
ENDBRANCH  17  20
ENDBRANCH  16  17
ENDBRANCH  15  16
ENDBRANCH  12  15
ENDBRANCH   1  13
BRANCH   4  22
ATOM     22  O   UNL     1      11.544   6.621 -13.637  0.00  0.00    +0.000 OA
ATOM     23  C   UNL     1      12.438   7.365 -14.463  0.00  0.00    +0.000 C 
ENDBRANCH   4  22
TORSDOF 8
ENDMDL
MODEL 6
REMARK VINA RESULT:    -6.745      3.889      7.847
REMARK INTER + INTRA:         -10.539
REMARK INTER:                  -9.392
REMARK INTRA:                  -1.147
REMARK UNBOUND:                -0.639
REMARK  Name = 5467
REMARK  12 active torsions:
REMARK  status: ('A' for Active; 'I' for Inactive)
REMARK    1  A    between atoms: S_1  and  C_16
REMARK    2  A    between atoms: S_1  and  C_21
REMARK    3  A    between atoms: O_2  and  C_18
REMARK    4  A    between atoms: O_2  and  C_22
REMARK    5  A    between atoms: N_6  and  C_8
REMARK    6  A    between atoms: N_6  and  C_10
REMARK    7  A    between atoms: N_6  and  C_11
REMARK    8  A    between atoms: N_7  and  C_9
REMARK    9  A    between atoms: C_8  and  C_9
REMARK   10  A    between atoms: C_10  and  C_12
REMARK   11  A    between atoms: C_11  and  C_13
REMARK   12  A    between atoms: C_14  and  C_15
REMARK                            x       y       z     vdW  Elec       q    Type
REMARK                         _______ _______ _______ _____ _____    ______ ____
ROOT
ATOM      1  C   UNL     1       9.486   3.203 -14.280  0.00  0.00    +0.000 A 
ATOM      2  C   UNL     1      10.021   5.102 -12.930  0.00  0.00    +0.000 A 
ATOM      3  C   UNL     1       9.086   4.169 -13.378  0.00  0.00    +0.000 A 
ATOM      4  C   UNL     1      10.781   3.131 -14.752  0.00  0.00    +0.000 A 
ATOM      5  C   UNL     1      11.335   5.050 -13.393  0.00  0.00    +0.000 A 
ATOM      6  C   UNL     1      11.716   4.065 -14.304  0.00  0.00    +0.000 A 
ENDROOT
BRANCH   2   7
ATOM      7  S   UNL     1       9.545   6.336 -11.789  0.00  0.00    +0.000 S 
ATOM      8  O   UNL     1      10.722   7.137 -11.478  0.00  0.00    +0.000 OA
ATOM      9  O   UNL     1       8.336   6.986 -12.273  0.00  0.00    +0.000 OA
ATOM     10  C   UNL     1       9.097   5.433 -10.323  0.00  0.00    +0.000 C 
ENDBRANCH   2   7
BRANCH   1  13
ATOM     11  O   UNL     1       7.701   2.534 -15.645  0.00  0.00    +0.000 OA
ATOM     12  N   UNL     1       8.499   0.976 -14.122  0.00  0.00    +0.000 N 
ATOM     13  C   UNL     1       8.475   2.219 -14.744  0.00  0.00    +0.000 C 
ATOM     14  H   UNL     1       9.121   0.806 -13.338  0.00  0.00    +0.000 HD
BRANCH  12  15
ATOM     15  C   UNL     1       7.601  -0.087 -14.478  0.00  0.00    +0.000 C 
BRANCH  15  16
ATOM     16  C   UNL     1       6.897  -0.648 -13.252  0.00  0.00    +0.000 C 
BRANCH  16  17
ATOM     17  N   UNL     1       5.571  -0.047 -13.107  0.00  0.00    +0.000 NA
BRANCH  17  18
ATOM     18  C   UNL     1       5.630   1.112 -12.218  0.00  0.00    +0.000 C 
ATOM     19  C   UNL     1       5.216   2.382 -12.942  0.00  0.00    +0.000 C 
ENDBRANCH  17  18
BRANCH  17  20
ATOM     20  C   UNL     1       5.039   0.338 -14.414  0.00  0.00    +0.000 C 
ATOM     21  C   UNL     1       3.785  -0.452 -14.749  0.00  0.00    +0.000 C 
ENDBRANCH  17  20
ENDBRANCH  16  17
ENDBRANCH  15  16
ENDBRANCH  12  15
ENDBRANCH   1  13
BRANCH   4  22
ATOM     22  O   UNL     1      11.171   2.176 -15.642  0.00  0.00    +0.000 OA
ATOM     23  C   UNL     1      11.908   2.616 -16.781  0.00  0.00    +0.000 C 
ENDBRANCH   4  22
TORSDOF 8
ENDMDL
MODEL 7
REMARK VINA RESULT:    -6.735      2.450      3.801
REMARK INTER + INTRA:         -10.524
REMARK INTER:                 -10.294
REMARK INTRA:                  -0.229
REMARK UNBOUND:                -0.639
REMARK  Name = 5467
REMARK  12 active torsions:
REMARK  status: ('A' for Active; 'I' for Inactive)
REMARK    1  A    between atoms: S_1  and  C_16
REMARK    2  A    between atoms: S_1  and  C_21
REMARK    3  A    between atoms: O_2  and  C_18
REMARK    4  A    between atoms: O_2  and  C_22
REMARK    5  A    between atoms: N_6  and  C_8
REMARK    6  A    between atoms: N_6  and  C_10
REMARK    7  A    between atoms: N_6  and  C_11
REMARK    8  A    between atoms: N_7  and  C_9
REMARK    9  A    between atoms: C_8  and  C_9
REMARK   10  A    between atoms: C_10  and  C_12
REMARK   11  A    between atoms: C_11  and  C_13
REMARK   12  A    between atoms: C_14  and  C_15
REMARK                            x       y       z     vdW  Elec       q    Type
REMARK                         _______ _______ _______ _____ _____    ______ ____
ROOT
ATOM      1  C   UNL     1       9.764   6.142 -10.374  0.00  0.00    +0.000 A 
ATOM      2  C   UNL     1       9.484   5.175 -12.543  0.00  0.00    +0.000 A 
ATOM      3  C   UNL     1       9.197   5.173 -11.177  0.00  0.00    +0.000 A 
ATOM      4  C   UNL     1      10.606   7.113 -10.878  0.00  0.00    +0.000 A 
ATOM      5  C   UNL     1      10.332   6.146 -13.075  0.00  0.00    +0.000 A 
ATOM      6  C   UNL     1      10.893   7.115 -12.244  0.00  0.00    +0.000 A 
ENDROOT
BRANCH   2   7
ATOM      7  S   UNL     1       8.782   3.963 -13.584  0.00  0.00    +0.000 S 
ATOM      8  O   UNL     1       9.506   2.716 -13.373  0.00  0.00    +0.000 OA
ATOM      9  O   UNL     1       7.334   3.991 -13.433  0.00  0.00    +0.000 OA
ATOM     10  C   UNL     1       9.143   4.531 -15.230  0.00  0.00    +0.000 C 
ENDBRANCH   2   7
BRANCH   1  13
ATOM     11  O   UNL     1       8.897   5.133  -8.444  0.00  0.00    +0.000 OA
ATOM     12  N   UNL     1       9.827   7.244  -8.197  0.00  0.00    +0.000 N 
ATOM     13  C   UNL     1       9.446   6.121  -8.923  0.00  0.00    +0.000 C 
ATOM     14  H   UNL     1      10.217   8.054  -8.669  0.00  0.00    +0.000 HD
BRANCH  12  15
ATOM     15  C   UNL     1       9.610   7.363  -6.782  0.00  0.00    +0.000 C 
BRANCH  15  16
ATOM     16  C   UNL     1      10.833   6.911  -5.996  0.00  0.00    +0.000 C 
BRANCH  16  17
ATOM     17  N   UNL     1      11.043   7.780  -4.839  0.00  0.00    +0.000 NA
BRANCH  17  18
ATOM     18  C   UNL     1      11.697   7.043  -3.759  0.00  0.00    +0.000 C 
ATOM     19  C   UNL     1      12.415   7.985  -2.807  0.00  0.00    +0.000 C 
ENDBRANCH  17  18
BRANCH  17  20
ATOM     20  C   UNL     1      11.839   8.948  -5.215  0.00  0.00    +0.000 C 
ATOM     21  C   UNL     1      10.970  10.189  -5.330  0.00  0.00    +0.000 C 
ENDBRANCH  17  20
ENDBRANCH  16  17
ENDBRANCH  15  16
ENDBRANCH  12  15
ENDBRANCH   1  13
BRANCH   4  22
ATOM     22  O   UNL     1      11.163   8.068 -10.082  0.00  0.00    +0.000 OA
ATOM     23  C   UNL     1      12.548   8.349 -10.281  0.00  0.00    +0.000 C 
ENDBRANCH   4  22
TORSDOF 8
ENDMDL
MODEL 8
REMARK VINA RESULT:    -6.656      4.294      7.966
REMARK INTER + INTRA:         -10.408
REMARK INTER:                  -9.189
REMARK INTRA:                  -1.219
REMARK UNBOUND:                -0.639
REMARK  Name = 5467
REMARK  12 active torsions:
REMARK  status: ('A' for Active; 'I' for Inactive)
REMARK    1  A    between atoms: S_1  and  C_16
REMARK    2  A    between atoms: S_1  and  C_21
REMARK    3  A    between atoms: O_2  and  C_18
REMARK    4  A    between atoms: O_2  and  C_22
REMARK    5  A    between atoms: N_6  and  C_8
REMARK    6  A    between atoms: N_6  and  C_10
REMARK    7  A    between atoms: N_6  and  C_11
REMARK    8  A    between atoms: N_7  and  C_9
REMARK    9  A    between atoms: C_8  and  C_9
REMARK   10  A    between atoms: C_10  and  C_12
REMARK   11  A    between atoms: C_11  and  C_13
REMARK   12  A    between atoms: C_14  and  C_15
REMARK                            x       y       z     vdW  Elec       q    Type
REMARK                         _______ _______ _______ _____ _____    ______ ____
ROOT
ATOM      1  C   UNL     1       8.190   3.913 -13.432  0.00  0.00    +0.000 A 
ATOM      2  C   UNL     1       8.571   5.947 -12.235  0.00  0.00    +0.000 A 
ATOM      3  C   UNL     1       9.068   4.880 -12.984  0.00  0.00    +0.000 A 
ATOM      4  C   UNL     1       6.837   3.968 -13.163  0.00  0.00    +0.000 A 
ATOM      5  C   UNL     1       7.208   6.024 -11.950  0.00  0.00    +0.000 A 
ATOM      6  C   UNL     1       6.341   5.035 -12.414  0.00  0.00    +0.000 A 
ENDROOT
BRANCH   2   7
ATOM      7  S   UNL     1       9.656   7.185 -11.654  0.00  0.00    +0.000 S 
ATOM      8  O   UNL     1       9.046   8.480 -11.926  0.00  0.00    +0.000 OA
ATOM      9  O   UNL     1      10.070   6.853 -10.298  0.00  0.00    +0.000 OA
ATOM     10  C   UNL     1      11.095   7.033 -12.687  0.00  0.00    +0.000 C 
ENDBRANCH   2   7
BRANCH   1  13
ATOM     11  O   UNL     1       9.715   2.171 -13.804  0.00  0.00    +0.000 OA
ATOM     12  N   UNL     1       8.074   2.490 -15.412  0.00  0.00    +0.000 N 
ATOM     13  C   UNL     1       8.740   2.785 -14.228  0.00  0.00    +0.000 C 
ATOM     14  H   UNL     1       7.316   3.081 -15.737  0.00  0.00    +0.000 HD
BRANCH  12  15
ATOM     15  C   UNL     1       8.471   1.414 -16.277  0.00  0.00    +0.000 C 
BRANCH  15  16
ATOM     16  C   UNL     1       7.740   0.126 -15.927  0.00  0.00    +0.000 C 
BRANCH  16  17
ATOM     17  N   UNL     1       6.343   0.409 -15.596  0.00  0.00    +0.000 NA
BRANCH  17  18
ATOM     18  C   UNL     1       5.494   0.243 -16.774  0.00  0.00    +0.000 C 
ATOM     19  C   UNL     1       4.377  -0.753 -16.512  0.00  0.00    +0.000 C 
ENDBRANCH  17  18
BRANCH  17  20
ATOM     20  C   UNL     1       5.889  -0.463 -14.512  0.00  0.00    +0.000 C 
ATOM     21  C   UNL     1       6.924  -0.543 -13.402  0.00  0.00    +0.000 C 
ENDBRANCH  17  20
ENDBRANCH  16  17
ENDBRANCH  15  16
ENDBRANCH  12  15
ENDBRANCH   1  13
BRANCH   4  22
ATOM     22  O   UNL     1       5.975   3.011 -13.608  0.00  0.00    +0.000 OA
ATOM     23  C   UNL     1       4.950   2.595 -12.707  0.00  0.00    +0.000 C 
ENDBRANCH   4  22
TORSDOF 8
ENDMDL
MODEL 9
REMARK VINA RESULT:    -6.589      3.766      5.342
REMARK INTER + INTRA:         -10.310
REMARK INTER:                  -9.514
REMARK INTRA:                  -0.796
REMARK UNBOUND:                -0.639
REMARK  Name = 5467
REMARK  12 active torsions:
REMARK  status: ('A' for Active; 'I' for Inactive)
REMARK    1  A    between atoms: S_1  and  C_16
REMARK    2  A    between atoms: S_1  and  C_21
REMARK    3  A    between atoms: O_2  and  C_18
REMARK    4  A    between atoms: O_2  and  C_22
REMARK    5  A    between atoms: N_6  and  C_8
REMARK    6  A    between atoms: N_6  and  C_10
REMARK    7  A    between atoms: N_6  and  C_11
REMARK    8  A    between atoms: N_7  and  C_9
REMARK    9  A    between atoms: C_8  and  C_9
REMARK   10  A    between atoms: C_10  and  C_12
REMARK   11  A    between atoms: C_11  and  C_13
REMARK   12  A    between atoms: C_14  and  C_15
REMARK                            x       y       z     vdW  Elec       q    Type
REMARK                         _______ _______ _______ _____ _____    ______ ____
ROOT
ATOM      1  C   UNL     1       7.846   2.845 -13.796  0.00  0.00    +0.000 A 
ATOM      2  C   UNL     1       5.983   1.348 -13.759  0.00  0.00    +0.000 A 
ATOM      3  C   UNL     1       7.286   1.638 -14.165  0.00  0.00    +0.000 A 
ATOM      4  C   UNL     1       7.160   3.773 -13.039  0.00  0.00    +0.000 A 
ATOM      5  C   UNL     1       5.269   2.269 -12.994  0.00  0.00    +0.000 A 
ATOM      6  C   UNL     1       5.857   3.482 -12.634  0.00  0.00    +0.000 A 
ENDROOT
BRANCH   2   7
ATOM      7  S   UNL     1       5.246  -0.170 -14.210  0.00  0.00    +0.000 S 
ATOM      8  O   UNL     1       6.183  -1.237 -13.885  0.00  0.00    +0.000 OA
ATOM      9  O   UNL     1       3.890  -0.214 -13.680  0.00  0.00    +0.000 OA
ATOM     10  C   UNL     1       5.109  -0.086 -15.981  0.00  0.00    +0.000 C 
ENDBRANCH   2   7
BRANCH   1  13
ATOM     11  O   UNL     1      10.126   2.331 -13.982  0.00  0.00    +0.000 OA
ATOM     12  N   UNL     1       9.416   4.316 -14.951  0.00  0.00    +0.000 N 
ATOM     13  C   UNL     1       9.234   3.135 -14.239  0.00  0.00    +0.000 C 
ATOM     14  H   UNL     1       8.647   4.968 -15.069  0.00  0.00    +0.000 HD
BRANCH  12  15
ATOM     15  C   UNL     1      10.693   4.722 -15.466  0.00  0.00    +0.000 C 
BRANCH  15  16
ATOM     16  C   UNL     1      11.589   5.261 -14.360  0.00  0.00    +0.000 C 
BRANCH  16  17
ATOM     17  N   UNL     1      11.904   6.669 -14.602  0.00  0.00    +0.000 NA
BRANCH  17  18
ATOM     18  C   UNL     1      12.165   7.358 -13.340  0.00  0.00    +0.000 C 
ATOM     19  C   UNL     1      11.122   7.003 -12.293  0.00  0.00    +0.000 C 
ENDBRANCH  17  18
BRANCH  17  20
ATOM     20  C   UNL     1      13.056   6.787 -15.497  0.00  0.00    +0.000 C 
ATOM     21  C   UNL     1      12.758   7.730 -16.650  0.00  0.00    +0.000 C 
ENDBRANCH  17  20
ENDBRANCH  16  17
ENDBRANCH  15  16
ENDBRANCH  12  15
ENDBRANCH   1  13
BRANCH   4  22
ATOM     22  O   UNL     1       7.717   4.962 -12.677  0.00  0.00    +0.000 OA
ATOM     23  C   UNL     1       6.826   5.991 -12.250  0.00  0.00    +0.000 C 
ENDBRANCH   4  22
TORSDOF 8
ENDMDL
MODEL 10
REMARK VINA RESULT:    -6.530      2.857      4.894
REMARK INTER + INTRA:         -10.224
REMARK INTER:                  -9.191
REMARK INTRA:                  -1.033
REMARK UNBOUND:                -0.639
REMARK  Name = 5467
REMARK  12 active torsions:
REMARK  status: ('A' for Active; 'I' for Inactive)
REMARK    1  A    between atoms: S_1  and  C_16
REMARK    2  A    between atoms: S_1  and  C_21
REMARK    3  A    between atoms: O_2  and  C_18
REMARK    4  A    between atoms: O_2  and  C_22
REMARK    5  A    between atoms: N_6  and  C_8
REMARK    6  A    between atoms: N_6  and  C_10
REMARK    7  A    between atoms: N_6  and  C_11
REMARK    8  A    between atoms: N_7  and  C_9
REMARK    9  A    between atoms: C_8  and  C_9
REMARK   10  A    between atoms: C_10  and  C_12
REMARK   11  A    between atoms: C_11  and  C_13
REMARK   12  A    between atoms: C_14  and  C_15
REMARK                            x       y       z     vdW  Elec       q    Type
REMARK                         _______ _______ _______ _____ _____    ______ ____
ROOT
ATOM      1  C   UNL     1       9.565   2.909 -14.640  0.00  0.00    +0.000 A 
ATOM      2  C   UNL     1       8.074   1.078 -14.264  0.00  0.00    +0.000 A 
ATOM      3  C   UNL     1       8.361   2.439 -14.153  0.00  0.00    +0.000 A 
ATOM      4  C   UNL     1      10.491   2.077 -15.235  0.00  0.00    +0.000 A 
ATOM      5  C   UNL     1       8.995   0.217 -14.860  0.00  0.00    +0.000 A 
ATOM      6  C   UNL     1      10.204   0.716 -15.346  0.00  0.00    +0.000 A 
ENDROOT
BRANCH   2   7
ATOM      7  S   UNL     1       6.561   0.453 -13.657  0.00  0.00    +0.000 S 
ATOM      8  O   UNL     1       6.823  -0.843 -13.048  0.00  0.00    +0.000 OA
ATOM      9  O   UNL     1       5.896   1.493 -12.884  0.00  0.00    +0.000 OA
ATOM     10  C   UNL     1       5.578   0.182 -15.114  0.00  0.00    +0.000 C 
ENDBRANCH   2   7
BRANCH   1  13
ATOM     11  O   UNL     1       9.400   5.138 -15.347  0.00  0.00    +0.000 OA
ATOM     12  N   UNL     1      10.610   4.739 -13.409  0.00  0.00    +0.000 N 
ATOM     13  C   UNL     1       9.851   4.361 -14.511  0.00  0.00    +0.000 C 
ATOM     14  H   UNL     1      11.008   4.037 -12.793  0.00  0.00    +0.000 HD
BRANCH  12  15
ATOM     15  C   UNL     1      10.950   6.108 -13.134  0.00  0.00    +0.000 C 
BRANCH  15  16
ATOM     16  C   UNL     1       9.928   6.754 -12.209  0.00  0.00    +0.000 C 
BRANCH  16  17
ATOM     17  N   UNL     1       9.398   5.769 -11.268  0.00  0.00    +0.000 NA
BRANCH  17  18
ATOM     18  C   UNL     1       9.662   6.183  -9.891  0.00  0.00    +0.000 C 
ATOM     19  C   UNL     1       9.191   5.132  -8.901  0.00  0.00    +0.000 C 
ENDBRANCH  17  18
BRANCH  17  20
ATOM     20  C   UNL     1       7.963   5.580 -11.479  0.00  0.00    +0.000 C 
ATOM     21  C   UNL     1       7.414   6.604 -12.457  0.00  0.00    +0.000 C 
ENDBRANCH  17  20
ENDBRANCH  16  17
ENDBRANCH  15  16
ENDBRANCH  12  15
ENDBRANCH   1  13
BRANCH   4  22
ATOM     22  O   UNL     1      11.677   2.545 -15.715  0.00  0.00    +0.000 OA
ATOM     23  C   UNL     1      11.791   2.687 -17.130  0.00  0.00    +0.000 C 
ENDBRANCH   4  22
TORSDOF 8
ENDMDL
