MODEL 1
REMARK VINA RESULT:     -12.6      0.000      0.000
REMARK  4 active torsions:
REMARK  status: ('A' for Active; 'I' for Inactive)
REMARK    1  A    between atoms: N1_4  and  C6_13 
REMARK    2  A    between atoms: C1_8  and  C7_14 
REMARK    3  A    between atoms: C6_13  and  C8_15 
REMARK    4  A    between atoms: C8_15  and  C9_16 
ROOT
ATOM      1  N1  UNK A   1       9.528   6.650 -10.241  1.00  0.00    -0.071 N 
ATOM      2  C1  UNK A   1      10.967   7.505  -7.731  1.00  0.00     0.044 C 
ATOM      3  C2  UNK A   1      11.078   8.299  -9.061  1.00  0.00     0.038 C 
ATOM      4  C3  UNK A   1       9.686   6.626  -7.682  1.00  0.00     0.038 C 
ATOM      5  C4  UNK A   1      10.856   7.391 -10.289  1.00  0.00     0.235 C 
ATOM      6  C5  UNK A   1       9.506   5.802  -8.979  1.00  0.00     0.235 C 
ATOM      7  HN  UNK A   1       8.756   7.337 -10.200  1.00  0.00     0.279 HD
ENDROOT
BRANCH   1   8
ATOM      8  C6  UNK A   1       9.357   5.770 -11.469  1.00  0.00     0.239 C 
BRANCH   8   9
ATOM      9  C8  UNK A   1       8.002   5.912 -12.201  1.00  0.00     0.074 C 
BRANCH   9  10
ATOM     10  C9  UNK A   1       7.651   4.654 -12.968  1.00  0.00     0.036 A 
ATOM     11  C16 UNK A   1       6.447   3.904 -12.518  1.00  0.00     0.257 A 
ATOM     12  O2  UNK A   1       5.745   4.289 -11.598  1.00  0.00    -0.267 OA
ATOM     13  N2  UNK A   1       6.192   2.728 -13.229  1.00  0.00    -0.302 N 
ATOM     14  C11 UNK A   1       5.079   1.863 -12.779  1.00  0.00     0.133 C 
ATOM     15  C13 UNK A   1       7.045   2.311 -14.258  1.00  0.00     0.109 A 
ATOM     16  C12 UNK A   1       4.682   0.745 -13.772  1.00  0.00     0.021 C 
ATOM     17  C14 UNK A   1       5.926   0.027 -14.323  1.00  0.00     0.009 C 
ATOM     18  C15 UNK A   1       6.833   1.039 -15.050  1.00  0.00     0.079 C 
ATOM     19  N4  UNK A   1       8.028   3.094 -14.640  1.00  0.00    -0.239 NA
ATOM     20  C17 UNK A   1       8.392   4.209 -14.050  1.00  0.00     0.044 A 
ATOM     21  C20 UNK A   1       9.601   4.908 -14.622  1.00  0.00     0.071 C 
ENDBRANCH   9  10
ENDBRANCH   8   9
ENDBRANCH   1   8
BRANCH   2  22
ATOM     22  C7  UNK A   1      11.055   8.436  -6.547  1.00  0.00     0.079 A 
ATOM     23  N3  UNK A   1      10.846   9.799  -6.667  1.00  0.00    -0.131 NA
ATOM     24  O1  UNK A   1      11.074  10.359  -5.370  1.00  0.00    -0.212 OA
ATOM     25  C18 UNK A   1      11.415   9.332  -4.525  1.00  0.00     0.116 A 
ATOM     26  C10 UNK A   1      11.420   8.133  -5.191  1.00  0.00     0.027 A 
ATOM     27  C21 UNK A   1      11.729   9.412  -3.161  1.00  0.00     0.082 A 
ATOM     28  C19 UNK A   1      11.737   6.926  -4.552  1.00  0.00     0.019 A 
ATOM     29  C22 UNK A   1      12.052   6.978  -3.178  1.00  0.00     0.043 A 
ATOM     30  C23 UNK A   1      12.047   8.213  -2.492  1.00  0.00     0.119 A 
ATOM     31  F1  UNK A   1      12.349   8.243  -1.178  1.00  0.00    -0.206 F 
ENDBRANCH   2  22
TORSDOF 4
ENDMDL
MODEL 2
REMARK VINA RESULT:     -12.2      1.789      2.448
REMARK  4 active torsions:
REMARK  status: ('A' for Active; 'I' for Inactive)
REMARK    1  A    between atoms: N1_4  and  C6_13 
REMARK    2  A    between atoms: C1_8  and  C7_14 
REMARK    3  A    between atoms: C6_13  and  C8_15 
REMARK    4  A    between atoms: C8_15  and  C9_16 
ROOT
ATOM      1  N1  UNK A   1       9.078   6.325  -9.960  1.00  0.00    -0.071 N 
ATOM      2  C1  UNK A   1      10.764   7.308  -7.659  1.00  0.00     0.044 C 
ATOM      3  C2  UNK A   1      10.713   8.047  -9.025  1.00  0.00     0.038 C 
ATOM      4  C3  UNK A   1       9.514   6.412  -7.434  1.00  0.00     0.038 C 
ATOM      5  C4  UNK A   1      10.378   7.084 -10.183  1.00  0.00     0.235 C 
ATOM      6  C5  UNK A   1       9.211   5.531  -8.670  1.00  0.00     0.235 C 
ATOM      7  HN  UNK A   1       8.301   7.001  -9.862  1.00  0.00     0.279 HD
ENDROOT
BRANCH   1   8
ATOM      8  C6  UNK A   1       8.793   5.391 -11.126  1.00  0.00     0.239 C 
BRANCH   8   9
ATOM      9  C8  UNK A   1       8.909   6.032 -12.529  1.00  0.00     0.074 C 
BRANCH   9  10
ATOM     10  C9  UNK A   1       9.547   5.081 -13.521  1.00  0.00     0.036 A 
ATOM     11  C16 UNK A   1       8.685   3.999 -14.067  1.00  0.00     0.257 A 
ATOM     12  O2  UNK A   1       7.508   3.888 -13.767  1.00  0.00    -0.267 OA
ATOM     13  N2  UNK A   1       9.332   3.123 -14.943  1.00  0.00    -0.302 N 
ATOM     14  C11 UNK A   1       8.580   1.952 -15.449  1.00  0.00     0.133 C 
ATOM     15  C13 UNK A   1      10.694   3.272 -15.234  1.00  0.00     0.109 A 
ATOM     16  C12 UNK A   1       9.257   1.200 -16.620  1.00  0.00     0.021 C 
ATOM     17  C14 UNK A   1      10.755   0.984 -16.345  1.00  0.00     0.009 C 
ATOM     18  C15 UNK A   1      11.453   2.345 -16.158  1.00  0.00     0.079 C 
ATOM     19  N4  UNK A   1      11.342   4.317 -14.774  1.00  0.00    -0.239 NA
ATOM     20  C17 UNK A   1      10.865   5.202 -13.927  1.00  0.00     0.044 A 
ATOM     21  C20 UNK A   1      11.819   6.282 -13.478  1.00  0.00     0.071 C 
ENDBRANCH   9  10
ENDBRANCH   8   9
ENDBRANCH   1   8
BRANCH   2  22
ATOM     22  C7  UNK A   1      10.961   8.290  -6.530  1.00  0.00     0.079 A 
ATOM     23  N3  UNK A   1      10.820   9.655  -6.711  1.00  0.00    -0.131 NA
ATOM     24  O1  UNK A   1      11.143  10.264  -5.457  1.00  0.00    -0.212 OA
ATOM     25  C18 UNK A   1      11.470   9.262  -4.577  1.00  0.00     0.116 A 
ATOM     26  C10 UNK A   1      11.376   8.034  -5.179  1.00  0.00     0.027 A 
ATOM     27  C21 UNK A   1      11.856   9.391  -3.235  1.00  0.00     0.082 A 
ATOM     28  C19 UNK A   1      11.659   6.844  -4.495  1.00  0.00     0.019 A 
ATOM     29  C22 UNK A   1      12.045   6.945  -3.141  1.00  0.00     0.043 A 
ATOM     30  C23 UNK A   1      12.141   8.210  -2.521  1.00  0.00     0.119 A 
ATOM     31  F1  UNK A   1      12.509   8.288  -1.225  1.00  0.00    -0.206 F 
ENDBRANCH   2  22
TORSDOF 4
ENDMDL
MODEL 3
REMARK VINA RESULT:     -11.8      1.864      3.096
REMARK  4 active torsions:
REMARK  status: ('A' for Active; 'I' for Inactive)
REMARK    1  A    between atoms: N1_4  and  C6_13 
REMARK    2  A    between atoms: C1_8  and  C7_14 
REMARK    3  A    between atoms: C6_13  and  C8_15 
REMARK    4  A    between atoms: C8_15  and  C9_16 
ROOT
ATOM      1  N1  UNK A   1       9.023   6.269  -9.899  1.00  0.00    -0.071 N 
ATOM      2  C1  UNK A   1      10.738   7.250  -7.619  1.00  0.00     0.044 C 
ATOM      3  C2  UNK A   1      10.750   7.927  -9.017  1.00  0.00     0.038 C 
ATOM      4  C3  UNK A   1       9.432   6.443  -7.374  1.00  0.00     0.038 C 
ATOM      5  C4  UNK A   1      10.370   6.936 -10.137  1.00  0.00     0.235 C 
ATOM      6  C5  UNK A   1       9.090   5.527  -8.574  1.00  0.00     0.235 C 
ATOM      7  HN  UNK A   1       8.288   6.995  -9.843  1.00  0.00     0.279 HD
ENDROOT
BRANCH   1   8
ATOM      8  C6  UNK A   1       8.695   5.302 -11.027  1.00  0.00     0.239 C 
BRANCH   8   9
ATOM      9  C8  UNK A   1       8.630   5.931 -12.439  1.00  0.00     0.074 C 
BRANCH   9  10
ATOM     10  C9  UNK A   1       8.950   4.914 -13.514  1.00  0.00     0.036 A 
ATOM     11  C16 UNK A   1      10.307   4.978 -14.120  1.00  0.00     0.257 A 
ATOM     12  O2  UNK A   1      11.146   5.786 -13.757  1.00  0.00    -0.267 OA
ATOM     13  N2  UNK A   1      10.536   4.048 -15.137  1.00  0.00    -0.302 N 
ATOM     14  C11 UNK A   1      11.821   4.113 -15.872  1.00  0.00     0.133 C 
ATOM     15  C13 UNK A   1       9.532   3.161 -15.542  1.00  0.00     0.109 A 
ATOM     16  C12 UNK A   1      12.117   2.889 -16.772  1.00  0.00     0.021 C 
ATOM     17  C14 UNK A   1      10.879   2.495 -17.594  1.00  0.00     0.009 C 
ATOM     18  C15 UNK A   1       9.714   2.145 -16.648  1.00  0.00     0.079 C 
ATOM     19  N4  UNK A   1       8.399   3.121 -14.877  1.00  0.00    -0.239 NA
ATOM     20  C17 UNK A   1       8.044   3.949 -13.920  1.00  0.00     0.044 A 
ATOM     21  C20 UNK A   1       6.660   3.758 -13.348  1.00  0.00     0.071 C 
ENDBRANCH   9  10
ENDBRANCH   8   9
ENDBRANCH   1   8
BRANCH   2  22
ATOM     22  C7  UNK A   1      10.982   8.268  -6.532  1.00  0.00     0.079 A 
ATOM     23  N3  UNK A   1      10.927   9.629  -6.776  1.00  0.00    -0.131 NA
ATOM     24  O1  UNK A   1      11.272  10.274  -5.545  1.00  0.00    -0.212 OA
ATOM     25  C18 UNK A   1      11.526   9.295  -4.617  1.00  0.00     0.116 A 
ATOM     26  C10 UNK A   1      11.364   8.048  -5.165  1.00  0.00     0.027 A 
ATOM     27  C21 UNK A   1      11.903   9.459  -3.277  1.00  0.00     0.082 A 
ATOM     28  C19 UNK A   1      11.565   6.875  -4.425  1.00  0.00     0.019 A 
ATOM     29  C22 UNK A   1      11.941   7.013  -3.072  1.00  0.00     0.043 A 
ATOM     30  C23 UNK A   1      12.107   8.298  -2.506  1.00  0.00     0.119 A 
ATOM     31  F1  UNK A   1      12.463   8.411  -1.211  1.00  0.00    -0.206 F 
ENDBRANCH   2  22
TORSDOF 4
ENDMDL
MODEL 4
REMARK VINA RESULT:     -11.7      1.354      2.264
REMARK  4 active torsions:
REMARK  status: ('A' for Active; 'I' for Inactive)
REMARK    1  A    between atoms: N1_4  and  C6_13 
REMARK    2  A    between atoms: C1_8  and  C7_14 
REMARK    3  A    between atoms: C6_13  and  C8_15 
REMARK    4  A    between atoms: C8_15  and  C9_16 
ROOT
ATOM      1  N1  UNK A   1       9.202   6.077 -10.108  1.00  0.00    -0.071 N 
ATOM      2  C1  UNK A   1      10.775   7.250  -7.816  1.00  0.00     0.044 C 
ATOM      3  C2  UNK A   1      10.735   7.914  -9.219  1.00  0.00     0.038 C 
ATOM      4  C3  UNK A   1       9.558   6.313  -7.579  1.00  0.00     0.038 C 
ATOM      5  C4  UNK A   1      10.475   6.880 -10.335  1.00  0.00     0.235 C 
ATOM      6  C5  UNK A   1       9.329   5.357  -8.775  1.00  0.00     0.235 C 
ATOM      7  HN  UNK A   1       8.395   6.723 -10.068  1.00  0.00     0.279 HD
ENDROOT
BRANCH   1   8
ATOM      8  C6  UNK A   1       8.992   5.073 -11.231  1.00  0.00     0.239 C 
BRANCH   8   9
ATOM      9  C8  UNK A   1       7.961   5.491 -12.306  1.00  0.00     0.074 C 
BRANCH   9  10
ATOM     10  C9  UNK A   1       7.671   4.356 -13.267  1.00  0.00     0.036 A 
ATOM     11  C16 UNK A   1       8.679   4.099 -14.330  1.00  0.00     0.257 A 
ATOM     12  O2  UNK A   1       9.712   4.741 -14.418  1.00  0.00    -0.267 OA
ATOM     13  N2  UNK A   1       8.344   3.071 -15.215  1.00  0.00    -0.302 N 
ATOM     14  C11 UNK A   1       9.237   2.820 -16.370  1.00  0.00     0.133 C 
ATOM     15  C13 UNK A   1       7.132   2.382 -15.093  1.00  0.00     0.109 A 
ATOM     16  C12 UNK A   1       8.960   1.501 -17.131  1.00  0.00     0.021 C 
ATOM     17  C14 UNK A   1       7.454   1.311 -17.377  1.00  0.00     0.009 C 
ATOM     18  C15 UNK A   1       6.705   1.275 -16.031  1.00  0.00     0.079 C 
ATOM     19  N4  UNK A   1       6.354   2.622 -14.061  1.00  0.00    -0.239 NA
ATOM     20  C17 UNK A   1       6.535   3.570 -13.170  1.00  0.00     0.044 A 
ATOM     21  C20 UNK A   1       5.469   3.707 -12.111  1.00  0.00     0.071 C 
ENDBRANCH   9  10
ENDBRANCH   8   9
ENDBRANCH   1   8
BRANCH   2  22
ATOM     22  C7  UNK A   1      10.897   8.296  -6.735  1.00  0.00     0.079 A 
ATOM     23  N3  UNK A   1      10.687   9.641  -6.988  1.00  0.00    -0.131 NA
ATOM     24  O1  UNK A   1      10.952  10.329  -5.761  1.00  0.00    -0.212 OA
ATOM     25  C18 UNK A   1      11.314   9.391  -4.825  1.00  0.00     0.116 A 
ATOM     26  C10 UNK A   1      11.298   8.130  -5.366  1.00  0.00     0.027 A 
ATOM     27  C21 UNK A   1      11.664   9.607  -3.485  1.00  0.00     0.082 A 
ATOM     28  C19 UNK A   1      11.629   6.993  -4.617  1.00  0.00     0.019 A 
ATOM     29  C22 UNK A   1      11.982   7.183  -3.264  1.00  0.00     0.043 A 
ATOM     30  C23 UNK A   1      11.998   8.481  -2.707  1.00  0.00     0.119 A 
ATOM     31  F1  UNK A   1      12.335   8.643  -1.411  1.00  0.00    -0.206 F 
ENDBRANCH   2  22
TORSDOF 4
ENDMDL
MODEL 5
REMARK VINA RESULT:     -11.2      3.953     10.797
REMARK  4 active torsions:
REMARK  status: ('A' for Active; 'I' for Inactive)
REMARK    1  A    between atoms: N1_4  and  C6_13 
REMARK    2  A    between atoms: C1_8  and  C7_14 
REMARK    3  A    between atoms: C6_13  and  C8_15 
REMARK    4  A    between atoms: C8_15  and  C9_16 
ROOT
ATOM      1  N1  UNK A   1       8.734   6.307 -12.563  1.00  0.00    -0.071 N 
ATOM      2  C1  UNK A   1       8.016   3.495 -13.388  1.00  0.00     0.044 C 
ATOM      3  C2  UNK A   1       6.938   4.568 -13.074  1.00  0.00     0.038 C 
ATOM      4  C3  UNK A   1       9.383   4.135 -13.761  1.00  0.00     0.038 C 
ATOM      5  C4  UNK A   1       7.458   5.630 -12.083  1.00  0.00     0.235 C 
ATOM      6  C5  UNK A   1       9.795   5.235 -12.753  1.00  0.00     0.235 C 
ATOM      7  HN  UNK A   1       8.553   6.769 -13.471  1.00  0.00     0.279 HD
ENDROOT
BRANCH   1   8
ATOM      8  C6  UNK A   1       9.207   7.342 -11.554  1.00  0.00     0.239 C 
BRANCH   8   9
ATOM      9  C8  UNK A   1      10.615   7.093 -10.963  1.00  0.00     0.074 C 
BRANCH   9  10
ATOM     10  C9  UNK A   1      10.603   7.177  -9.450  1.00  0.00     0.036 A 
ATOM     11  C16 UNK A   1      11.293   8.343  -8.835  1.00  0.00     0.257 A 
ATOM     12  O2  UNK A   1      11.820   9.216  -9.503  1.00  0.00    -0.267 OA
ATOM     13  N2  UNK A   1      11.292   8.350  -7.438  1.00  0.00    -0.302 N 
ATOM     14  C11 UNK A   1      12.050   9.414  -6.741  1.00  0.00     0.133 C 
ATOM     15  C13 UNK A   1      10.701   7.308  -6.713  1.00  0.00     0.109 A 
ATOM     16  C12 UNK A   1      11.769   9.525  -5.223  1.00  0.00     0.021 C 
ATOM     17  C14 UNK A   1      11.769   8.138  -4.558  1.00  0.00     0.009 C 
ATOM     18  C15 UNK A   1      10.685   7.251  -5.201  1.00  0.00     0.079 C 
ATOM     19  N4  UNK A   1      10.035   6.374  -7.351  1.00  0.00    -0.239 NA
ATOM     20  C17 UNK A   1       9.974   6.233  -8.656  1.00  0.00     0.044 A 
ATOM     21  C20 UNK A   1       9.207   5.038  -9.167  1.00  0.00     0.071 C 
ENDBRANCH   9  10
ENDBRANCH   8   9
ENDBRANCH   1   8
BRANCH   2  22
ATOM     22  C7  UNK A   1       7.529   2.548 -14.457  1.00  0.00     0.079 A 
ATOM     23  N3  UNK A   1       8.142   2.461 -15.695  1.00  0.00    -0.131 NA
ATOM     24  O1  UNK A   1       7.378   1.521 -16.459  1.00  0.00    -0.212 OA
ATOM     25  C18 UNK A   1       6.343   1.085 -15.670  1.00  0.00     0.116 A 
ATOM     26  C10 UNK A   1       6.385   1.679 -14.435  1.00  0.00     0.027 A 
ATOM     27  C21 UNK A   1       5.340   0.163 -16.002  1.00  0.00     0.082 A 
ATOM     28  C19 UNK A   1       5.437   1.404 -13.441  1.00  0.00     0.019 A 
ATOM     29  C22 UNK A   1       4.419   0.476 -13.748  1.00  0.00     0.043 A 
ATOM     30  C23 UNK A   1       4.375  -0.138 -15.020  1.00  0.00     0.119 A 
ATOM     31  F1  UNK A   1       3.397  -1.024 -15.297  1.00  0.00    -0.206 F 
ENDBRANCH   2  22
TORSDOF 4
ENDMDL
MODEL 6
REMARK VINA RESULT:     -11.1      3.619     10.352
REMARK  4 active torsions:
REMARK  status: ('A' for Active; 'I' for Inactive)
REMARK    1  A    between atoms: N1_4  and  C6_13 
REMARK    2  A    between atoms: C1_8  and  C7_14 
REMARK    3  A    between atoms: C6_13  and  C8_15 
REMARK    4  A    between atoms: C8_15  and  C9_16 
ROOT
ATOM      1  N1  UNK A   1      11.481   7.414 -10.386  1.00  0.00    -0.071 N 
ATOM      2  C1  UNK A   1      10.284   6.242 -12.896  1.00  0.00     0.044 C 
ATOM      3  C2  UNK A   1      11.815   6.438 -12.721  1.00  0.00     0.038 C 
ATOM      4  C3  UNK A   1       9.544   6.182 -11.530  1.00  0.00     0.038 C 
ATOM      5  C4  UNK A   1      12.137   7.592 -11.748  1.00  0.00     0.235 C 
ATOM      6  C5  UNK A   1       9.977   7.335 -10.592  1.00  0.00     0.235 C 
ATOM      7  HN  UNK A   1      11.811   6.529  -9.963  1.00  0.00     0.279 HD
ENDROOT
BRANCH   1   8
ATOM      8  C6  UNK A   1      11.826   8.574  -9.466  1.00  0.00     0.239 C 
BRANCH   8   9
ATOM      9  C8  UNK A   1      10.689   9.028  -8.521  1.00  0.00     0.074 C 
BRANCH   9  10
ATOM     10  C9  UNK A   1      10.858   8.447  -7.132  1.00  0.00     0.036 A 
ATOM     11  C16 UNK A   1      11.671   9.233  -6.166  1.00  0.00     0.257 A 
ATOM     12  O2  UNK A   1      12.159  10.314  -6.452  1.00  0.00    -0.267 OA
ATOM     13  N2  UNK A   1      11.832   8.633  -4.915  1.00  0.00    -0.302 N 
ATOM     14  C11 UNK A   1      12.718   9.293  -3.928  1.00  0.00     0.133 C 
ATOM     15  C13 UNK A   1      11.279   7.376  -4.643  1.00  0.00     0.109 A 
ATOM     16  C12 UNK A   1      12.621   8.732  -2.489  1.00  0.00     0.021 C 
ATOM     17  C14 UNK A   1      12.630   7.194  -2.495  1.00  0.00     0.009 C 
ATOM     18  C15 UNK A   1      11.436   6.668  -3.315  1.00  0.00     0.079 C 
ATOM     19  N4  UNK A   1      10.498   6.808  -5.533  1.00  0.00    -0.239 NA
ATOM     20  C17 UNK A   1      10.279   7.248  -6.751  1.00  0.00     0.044 A 
ATOM     21  C20 UNK A   1       9.400   6.388  -7.627  1.00  0.00     0.071 C 
ENDBRANCH   9  10
ENDBRANCH   8   9
ENDBRANCH   1   8
BRANCH   2  22
ATOM     22  C7  UNK A   1       9.996   5.027 -13.744  1.00  0.00     0.079 A 
ATOM     23  N3  UNK A   1      10.897   4.560 -14.686  1.00  0.00    -0.131 NA
ATOM     24  O1  UNK A   1      10.265   3.450 -15.333  1.00  0.00    -0.212 OA
ATOM     25  C18 UNK A   1       9.021   3.293 -14.773  1.00  0.00     0.116 A 
ATOM     26  C10 UNK A   1       8.803   4.230 -13.795  1.00  0.00     0.027 A 
ATOM     27  C21 UNK A   1       8.050   2.335 -15.096  1.00  0.00     0.082 A 
ATOM     28  C19 UNK A   1       7.606   4.286 -13.069  1.00  0.00     0.019 A 
ATOM     29  C22 UNK A   1       6.613   3.330 -13.372  1.00  0.00     0.043 A 
ATOM     30  C23 UNK A   1       6.838   2.363 -14.377  1.00  0.00     0.119 A 
ATOM     31  F1  UNK A   1       5.879   1.455 -14.652  1.00  0.00    -0.206 F 
ENDBRANCH   2  22
TORSDOF 4
ENDMDL
MODEL 7
REMARK VINA RESULT:     -10.7      2.406      3.463
REMARK  4 active torsions:
REMARK  status: ('A' for Active; 'I' for Inactive)
REMARK    1  A    between atoms: N1_4  and  C6_13 
REMARK    2  A    between atoms: C1_8  and  C7_14 
REMARK    3  A    between atoms: C6_13  and  C8_15 
REMARK    4  A    between atoms: C8_15  and  C9_16 
ROOT
ATOM      1  N1  UNK A   1       9.293   4.832 -12.428  1.00  0.00    -0.071 N 
ATOM      2  C1  UNK A   1      10.124   7.202 -10.756  1.00  0.00     0.044 C 
ATOM      3  C2  UNK A   1       9.453   5.945 -10.138  1.00  0.00     0.038 C 
ATOM      4  C3  UNK A   1      10.790   6.892 -12.126  1.00  0.00     0.038 C 
ATOM      5  C4  UNK A   1       8.551   5.217 -11.157  1.00  0.00     0.235 C 
ATOM      6  C5  UNK A   1       9.842   6.102 -13.059  1.00  0.00     0.235 C 
ATOM      7  HN  UNK A   1      10.082   4.207 -12.186  1.00  0.00     0.279 HD
ENDROOT
BRANCH   1   8
ATOM      8  C6  UNK A   1       8.364   4.120 -13.400  1.00  0.00     0.239 C 
BRANCH   8   9
ATOM      9  C8  UNK A   1       8.836   2.721 -13.860  1.00  0.00     0.074 C 
BRANCH   9  10
ATOM     10  C9  UNK A   1       7.847   2.091 -14.820  1.00  0.00     0.036 A 
ATOM     11  C16 UNK A   1       6.712   1.339 -14.221  1.00  0.00     0.257 A 
ATOM     12  O2  UNK A   1       6.552   1.252 -13.015  1.00  0.00    -0.267 OA
ATOM     13  N2  UNK A   1       5.855   0.741 -15.148  1.00  0.00    -0.302 N 
ATOM     14  C11 UNK A   1       4.761  -0.119 -14.641  1.00  0.00     0.133 C 
ATOM     15  C13 UNK A   1       6.098   0.842 -16.523  1.00  0.00     0.109 A 
ATOM     16  C12 UNK A   1       3.696  -0.506 -15.694  1.00  0.00     0.021 C 
ATOM     17  C14 UNK A   1       4.357  -0.947 -17.012  1.00  0.00     0.009 C 
ATOM     18  C15 UNK A   1       5.218   0.201 -17.573  1.00  0.00     0.079 C 
ATOM     19  N4  UNK A   1       7.075   1.609 -16.951  1.00  0.00    -0.239 NA
ATOM     20  C17 UNK A   1       7.966   2.209 -16.195  1.00  0.00     0.044 A 
ATOM     21  C20 UNK A   1       9.045   2.981 -16.913  1.00  0.00     0.071 C 
ENDBRANCH   9  10
ENDBRANCH   8   9
ENDBRANCH   1   8
BRANCH   2  22
ATOM     22  C7  UNK A   1      11.100   7.817  -9.784  1.00  0.00     0.079 A 
ATOM     23  N3  UNK A   1      12.459   7.868 -10.041  1.00  0.00    -0.131 NA
ATOM     24  O1  UNK A   1      13.068   8.452  -8.884  1.00  0.00    -0.212 OA
ATOM     25  C18 UNK A   1      12.071   8.722  -7.979  1.00  0.00     0.116 A 
ATOM     26  C10 UNK A   1      10.847   8.354  -8.476  1.00  0.00     0.027 A 
ATOM     27  C21 UNK A   1      12.201   9.292  -6.705  1.00  0.00     0.082 A 
ATOM     28  C19 UNK A   1       9.663   8.524  -7.745  1.00  0.00     0.019 A 
ATOM     29  C22 UNK A   1       9.766   9.101  -6.461  1.00  0.00     0.043 A 
ATOM     30  C23 UNK A   1      11.027   9.481  -5.949  1.00  0.00     0.119 A 
ATOM     31  F1  UNK A   1      11.106  10.032  -4.721  1.00  0.00    -0.206 F 
ENDBRANCH   2  22
TORSDOF 4
ENDMDL
MODEL 8
REMARK VINA RESULT:     -10.6      2.443      3.580
REMARK  4 active torsions:
REMARK  status: ('A' for Active; 'I' for Inactive)
REMARK    1  A    between atoms: N1_4  and  C6_13 
REMARK    2  A    between atoms: C1_8  and  C7_14 
REMARK    3  A    between atoms: C6_13  and  C8_15 
REMARK    4  A    between atoms: C8_15  and  C9_16 
ROOT
ATOM      1  N1  UNK A   1      10.073   4.709 -12.561  1.00  0.00    -0.071 N 
ATOM      2  C1  UNK A   1      10.600   7.178 -10.909  1.00  0.00     0.044 C 
ATOM      3  C2  UNK A   1       9.825   5.955 -10.347  1.00  0.00     0.038 C 
ATOM      4  C3  UNK A   1      11.498   6.794 -12.118  1.00  0.00     0.038 C 
ATOM      5  C4  UNK A   1       9.117   5.163 -11.466  1.00  0.00     0.235 C 
ATOM      6  C5  UNK A   1      10.728   5.944 -13.157  1.00  0.00     0.235 C 
ATOM      7  HN  UNK A   1      10.803   4.106 -12.146  1.00  0.00     0.279 HD
ENDROOT
BRANCH   1   8
ATOM      8  C6  UNK A   1       9.329   3.936 -13.639  1.00  0.00     0.239 C 
BRANCH   8   9
ATOM      9  C8  UNK A   1       7.867   4.381 -13.881  1.00  0.00     0.074 C 
BRANCH   9  10
ATOM     10  C9  UNK A   1       6.919   3.199 -13.869  1.00  0.00     0.036 A 
ATOM     11  C16 UNK A   1       7.189   2.108 -14.843  1.00  0.00     0.257 A 
ATOM     12  O2  UNK A   1       8.144   2.132 -15.601  1.00  0.00    -0.267 OA
ATOM     13  N2  UNK A   1       6.261   1.063 -14.821  1.00  0.00    -0.302 N 
ATOM     14  C11 UNK A   1       6.390  -0.011 -15.832  1.00  0.00     0.133 C 
ATOM     15  C13 UNK A   1       5.162   1.095 -13.954  1.00  0.00     0.109 A 
ATOM     16  C12 UNK A   1       5.516  -1.261 -15.567  1.00  0.00     0.021 C 
ATOM     17  C14 UNK A   1       4.084  -0.860 -15.174  1.00  0.00     0.009 C 
ATOM     18  C15 UNK A   1       4.115   0.004 -13.898  1.00  0.00     0.079 C 
ATOM     19  N4  UNK A   1       5.067   2.058 -13.067  1.00  0.00    -0.239 NA
ATOM     20  C17 UNK A   1       5.852   3.109 -12.990  1.00  0.00     0.044 A 
ATOM     21  C20 UNK A   1       5.507   4.129 -11.932  1.00  0.00     0.071 C 
ENDBRANCH   9  10
ENDBRANCH   8   9
ENDBRANCH   1   8
BRANCH   2  22
ATOM     22  C7  UNK A   1      11.389   7.856  -9.816  1.00  0.00     0.079 A 
ATOM     23  N3  UNK A   1      12.763   8.013  -9.891  1.00  0.00    -0.131 NA
ATOM     24  O1  UNK A   1      13.167   8.629  -8.664  1.00  0.00    -0.212 OA
ATOM     25  C18 UNK A   1      12.042   8.814  -7.899  1.00  0.00     0.116 A 
ATOM     26  C10 UNK A   1      10.925   8.360  -8.553  1.00  0.00     0.027 A 
ATOM     27  C21 UNK A   1      11.958   9.380  -6.619  1.00  0.00     0.082 A 
ATOM     28  C19 UNK A   1       9.646   8.433  -7.986  1.00  0.00     0.019 A 
ATOM     29  C22 UNK A   1       9.534   9.003  -6.700  1.00  0.00     0.043 A 
ATOM     30  C23 UNK A   1      10.684   9.472  -6.026  1.00  0.00     0.119 A 
ATOM     31  F1  UNK A   1      10.558  10.016  -4.798  1.00  0.00    -0.206 F 
ENDBRANCH   2  22
TORSDOF 4
ENDMDL
MODEL 9
REMARK VINA RESULT:     -10.4      1.649      2.422
REMARK  4 active torsions:
REMARK  status: ('A' for Active; 'I' for Inactive)
REMARK    1  A    between atoms: N1_4  and  C6_13 
REMARK    2  A    between atoms: C1_8  and  C7_14 
REMARK    3  A    between atoms: C6_13  and  C8_15 
REMARK    4  A    between atoms: C8_15  and  C9_16 
ROOT
ATOM      1  N1  UNK A   1       8.961   5.933 -12.451  1.00  0.00    -0.071 N 
ATOM      2  C1  UNK A   1      10.652   6.866 -10.133  1.00  0.00     0.044 C 
ATOM      3  C2  UNK A   1      10.838   7.421 -11.572  1.00  0.00     0.038 C 
ATOM      4  C3  UNK A   1       9.238   6.256  -9.922  1.00  0.00     0.038 C 
ATOM      5  C4  UNK A   1      10.397   6.400 -12.641  1.00  0.00     0.235 C 
ATOM      6  C5  UNK A   1       8.849   5.298 -11.073  1.00  0.00     0.235 C 
ATOM      7  HN  UNK A   1       8.328   6.749 -12.499  1.00  0.00     0.279 HD
ENDROOT
BRANCH   1   8
ATOM      8  C6  UNK A   1       8.574   4.928 -13.525  1.00  0.00     0.239 C 
BRANCH   8   9
ATOM      9  C8  UNK A   1       9.191   3.519 -13.365  1.00  0.00     0.074 C 
BRANCH   9  10
ATOM     10  C9  UNK A   1       8.337   2.461 -14.033  1.00  0.00     0.036 A 
ATOM     11  C16 UNK A   1       6.963   2.268 -13.500  1.00  0.00     0.257 A 
ATOM     12  O2  UNK A   1       6.516   2.944 -12.588  1.00  0.00    -0.267 OA
ATOM     13  N2  UNK A   1       6.233   1.251 -14.122  1.00  0.00    -0.302 N 
ATOM     14  C11 UNK A   1       4.895   0.916 -13.582  1.00  0.00     0.133 C 
ATOM     15  C13 UNK A   1       6.799   0.480 -15.143  1.00  0.00     0.109 A 
ATOM     16  C12 UNK A   1       4.042  -0.006 -14.485  1.00  0.00     0.021 C 
ATOM     17  C14 UNK A   1       4.877  -1.181 -15.021  1.00  0.00     0.009 C 
ATOM     18  C15 UNK A   1       6.067  -0.645 -15.840  1.00  0.00     0.079 C 
ATOM     19  N4  UNK A   1       7.988   0.794 -15.606  1.00  0.00    -0.239 NA
ATOM     20  C17 UNK A   1       8.789   1.706 -15.103  1.00  0.00     0.044 A 
ATOM     21  C20 UNK A   1      10.142   1.843 -15.757  1.00  0.00     0.071 C 
ENDBRANCH   9  10
ENDBRANCH   8   9
ENDBRANCH   1   8
BRANCH   2  22
ATOM     22  C7  UNK A   1      10.964   7.929  -9.108  1.00  0.00     0.079 A 
ATOM     23  N3  UNK A   1      11.254   9.234  -9.468  1.00  0.00    -0.131 NA
ATOM     24  O1  UNK A   1      11.559   9.929  -8.255  1.00  0.00    -0.212 OA
ATOM     25  C18 UNK A   1      11.452   9.033  -7.221  1.00  0.00     0.116 A 
ATOM     26  C10 UNK A   1      11.091   7.793  -7.684  1.00  0.00     0.027 A 
ATOM     27  C21 UNK A   1      11.665   9.269  -5.855  1.00  0.00     0.082 A 
ATOM     28  C19 UNK A   1      10.916   6.698  -6.827  1.00  0.00     0.019 A 
ATOM     29  C22 UNK A   1      11.120   6.910  -5.447  1.00  0.00     0.043 A 
ATOM     30  C23 UNK A   1      11.490   8.187  -4.969  1.00  0.00     0.119 A 
ATOM     31  F1  UNK A   1      11.678   8.372  -3.647  1.00  0.00    -0.206 F 
ENDBRANCH   2  22
TORSDOF 4
ENDMDL
