REMARK  4 active torsions:
REMARK  status: ('A' for Active; 'I' for Inactive)
REMARK    1  A    between atoms: N1_4  and  C6_13 
REMARK    2  A    between atoms: C1_8  and  C7_14 
REMARK    3  A    between atoms: C6_13  and  C8_15 
REMARK    4  A    between atoms: C8_15  and  C9_16 
ROOT
ATOM      1  N1  UNK A   1      -0.011   1.065   0.224  1.00  0.00    -0.071 N 
ATOM      2  C1  UNK A   1       2.893   0.248   0.281  1.00  0.00     0.044 C 
ATOM      3  C2  UNK A   1       2.039   0.185  -1.015  1.00  0.00     0.038 C 
ATOM      4  C3  UNK A   1       2.300   1.239   1.322  1.00  0.00     0.038 C 
ATOM      5  C4  UNK A   1       0.540  -0.008  -0.704  1.00  0.00     0.235 C 
ATOM      6  C5  UNK A   1       0.781   1.020   1.521  1.00  0.00     0.235 C 
ATOM      7  HN  UNK A   1       0.114   1.993  -0.216  1.00  0.00     0.279 HD
ENDROOT
BRANCH   1   8
ATOM      8  C6  UNK A   1      -1.488   0.831   0.501  1.00  0.00     0.239 C 
BRANCH   8   9
ATOM      9  C8  UNK A   1      -2.425   1.010  -0.717  1.00  0.00     0.074 C 
BRANCH   9  10
ATOM     10  C9  UNK A   1      -3.863   0.693  -0.361  1.00  0.00     0.036 A 
ATOM     11  C16 UNK A   1      -4.278  -0.733  -0.439  1.00  0.00     0.257 A 
ATOM     12  O2  UNK A   1      -3.501  -1.623  -0.742  1.00  0.00    -0.267 OA
ATOM     13  N2  UNK A   1      -5.624  -0.966  -0.144  1.00  0.00    -0.302 N 
ATOM     14  C11 UNK A   1      -6.150  -2.341  -0.304  1.00  0.00     0.133 C 
ATOM     15  C13 UNK A   1      -6.486   0.092   0.168  1.00  0.00     0.109 A 
ATOM     16  C12 UNK A   1      -7.552  -2.576   0.308  1.00  0.00     0.021 C 
ATOM     17  C14 UNK A   1      -8.512  -1.430  -0.054  1.00  0.00     0.009 C 
ATOM     18  C15 UNK A   1      -7.955  -0.095   0.477  1.00  0.00     0.079 C 
ATOM     19  N4  UNK A   1      -5.998   1.304   0.303  1.00  0.00    -0.239 NA
ATOM     20  C17 UNK A   1      -4.764   1.667   0.036  1.00  0.00     0.044 A 
ATOM     21  C20 UNK A   1      -4.447   3.134   0.195  1.00  0.00     0.071 C 
ENDBRANCH   9  10
ENDBRANCH   8   9
ENDBRANCH   1   8
BRANCH   2  22
ATOM     22  C7  UNK A   1       4.331   0.569  -0.044  1.00  0.00     0.079 A 
ATOM     23  N3  UNK A   1       4.701   1.766  -0.633  1.00  0.00    -0.131 NA
ATOM     24  O1  UNK A   1       6.114   1.690  -0.849  1.00  0.00    -0.212 OA
ATOM     25  C18 UNK A   1       6.541   0.466  -0.397  1.00  0.00     0.116 A 
ATOM     26  C10 UNK A   1       5.493  -0.262   0.106  1.00  0.00     0.027 A 
ATOM     27  C21 UNK A   1       7.846  -0.046  -0.410  1.00  0.00     0.082 A 
ATOM     28  C19 UNK A   1       5.663  -1.550   0.631  1.00  0.00     0.019 A 
ATOM     29  C22 UNK A   1       6.968  -2.087   0.634  1.00  0.00     0.043 A 
ATOM     30  C23 UNK A   1       8.048  -1.337   0.117  1.00  0.00     0.119 A 
ATOM     31  F1  UNK A   1       9.289  -1.865   0.130  1.00  0.00    -0.206 F 
ENDBRANCH   2  22
TORSDOF 4
